MODPATH_PATHLINE_FILE 6 0                                                       
 1   0.0000000E+00
END HEADER
         1     1     0     1   0.0000000E+00   0.6250000E+03   0.6375000E+04   0.3523265E+02    1   15    3  1  0.5000000E+00   0.5000000E+00   0.1000000E+01     1
         1     1     1     1   0.1000000E-02   0.6250000E+03   0.6375000E+04   0.3523265E+02    1   15    3  1  0.5000000E+00   0.5000000E+00   0.1000000E+01     1
         1     1    -1     1   0.1000000E-02   0.6250000E+03   0.6375000E+04   0.3523265E+02    1   15    3  1  0.5000000E+00   0.5000000E+00   0.1000000E+01     2
         1     1     2     1   0.2000000E-02   0.6250000E+03   0.6375000E+04   0.3523265E+02    1   15    3  1  0.5000000E+00   0.5000000E+00   0.1000000E+01     2
         1     1    -1     1   0.2000000E-02   0.6250000E+03   0.6375000E+04   0.3523265E+02    1   15    3  1  0.5000000E+00   0.5000000E+00   0.1000000E+01     3
         1     1     3     1   0.3000000E-02   0.6250000E+03   0.6375000E+04   0.3523265E+02    1   15    3  1  0.5000000E+00   0.5000000E+00   0.1000000E+01     3
         1     1    -1     1   0.3000000E-02   0.6250000E+03   0.6375000E+04   0.3523265E+02    1   15    3  1  0.5000000E+00   0.5000000E+00   0.1000000E+01     4
         1     1     4     1   0.4000000E-02   0.6250000E+03   0.6375000E+04   0.3523265E+02    1   15    3  1  0.5000000E+00   0.5000000E+00   0.1000000E+01     4
         1     1    -1     1   0.4000000E-02   0.6250000E+03   0.6375000E+04   0.3523265E+02    1   15    3  1  0.5000000E+00   0.5000000E+00   0.1000000E+01     5
         1     1     5     1   0.5000000E-02   0.6250000E+03   0.6375000E+04   0.3523265E+02    1   15    3  1  0.5000000E+00   0.5000000E+00   0.1000000E+01     5
         1     1    -1     1   0.5000000E-02   0.6250000E+03   0.6375000E+04   0.3523265E+02    1   15    3  1  0.5000000E+00   0.5000000E+00   0.1000000E+01     6
         1     1     6     1   0.6000001E-02   0.6250000E+03   0.6375000E+04   0.3523265E+02    1   15    3  1  0.5000000E+00   0.5000000E+00   0.1000000E+01     6
         1     1    -1     1   0.6000001E-02   0.6250000E+03   0.6375000E+04   0.3523265E+02    1   15    3  1  0.5000000E+00   0.5000000E+00   0.1000000E+01     7
         1     1     7     1   0.7000001E-02   0.6250000E+03   0.6375000E+04   0.3523265E+02    1   15    3  1  0.5000000E+00   0.5000000E+00   0.1000000E+01     7
         1     1    -1     1   0.7000001E-02   0.6250000E+03   0.6375000E+04   0.3523265E+02    1   15    3  1  0.5000000E+00   0.5000000E+00   0.1000000E+01     8
         1     1     8     1   0.8000000E-02   0.6250000E+03   0.6375000E+04   0.3523265E+02    1   15    3  1  0.5000000E+00   0.5000000E+00   0.1000000E+01     8
         1     1    -1     1   0.8000000E-02   0.6250000E+03   0.6375000E+04   0.3523265E+02    1   15    3  1  0.5000000E+00   0.5000000E+00   0.1000000E+01     9
         1     1     9     1   0.9000001E-02   0.6250000E+03   0.6375000E+04   0.3523265E+02    1   15    3  1  0.5000000E+00   0.5000000E+00   0.1000000E+01     9
         1     1    -1     1   0.9000001E-02   0.6250000E+03   0.6375000E+04   0.3523265E+02    1   15    3  1  0.5000000E+00   0.5000000E+00   0.1000000E+01    10
         1     1    10     1   0.1000000E-01   0.6250000E+03   0.6375000E+04   0.3523265E+02    1   15    3  1  0.5000000E+00   0.5000000E+00   0.1000000E+01    10
         1     1    -1     1   0.1000000E-01   0.6250000E+03   0.6375000E+04   0.3523265E+02    1   15    3  1  0.5000000E+00   0.5000000E+00   0.1000000E+01    11
         1     1    11     1   0.1100000E-01   0.6250000E+03   0.6375000E+04   0.3523265E+02    1   15    3  1  0.5000000E+00   0.5000000E+00   0.1000000E+01    11
         1     1    -1     1   0.1100000E-01   0.6250000E+03   0.6375000E+04   0.3523265E+02    1   15    3  1  0.5000000E+00   0.5000000E+00   0.1000000E+01    12
         1     1    12     1   0.1200000E-01   0.6250000E+03   0.6375000E+04   0.3523265E+02    1   15    3  1  0.5000000E+00   0.5000000E+00   0.1000000E+01    12
         1     1    -1     1   0.1200000E-01   0.6250000E+03   0.6375000E+04   0.3523265E+02    1   15    3  1  0.5000000E+00   0.5000000E+00   0.1000000E+01    13
         1     1    13     1   0.1300000E-01   0.6250000E+03   0.6375000E+04   0.3523265E+02    1   15    3  1  0.5000000E+00   0.5000000E+00   0.1000000E+01    13
         1     1    -1     1   0.1300000E-01   0.6250000E+03   0.6375000E+04   0.3523265E+02    1   15    3  1  0.5000000E+00   0.5000000E+00   0.1000000E+01    14
         1     1    14     1   0.1400000E-01   0.6250000E+03   0.6375000E+04   0.3523265E+02    1   15    3  1  0.5000000E+00   0.5000000E+00   0.1000000E+01    14
         1     1    -1     1   0.1400000E-01   0.6250000E+03   0.6375000E+04   0.3523265E+02    1   15    3  1  0.5000000E+00   0.5000000E+00   0.1000000E+01    15
         1     1    15     1   0.1500000E-01   0.6250000E+03   0.6375000E+04   0.3523265E+02    1   15    3  1  0.5000000E+00   0.5000000E+00   0.1000000E+01    15
         1     1    -1     1   0.1500000E-01   0.6250000E+03   0.6375000E+04   0.3523265E+02    1   15    3  1  0.5000000E+00   0.5000000E+00   0.1000000E+01    16
         1     1    16     1   0.1600000E-01   0.6250000E+03   0.6375000E+04   0.3523265E+02    1   15    3  1  0.5000000E+00   0.5000000E+00   0.1000000E+01    16
         1     1    -1     1   0.1600000E-01   0.6250000E+03   0.6375000E+04   0.3523265E+02    1   15    3  1  0.5000000E+00   0.5000000E+00   0.1000000E+01    17
         1     1    17     1   0.1700000E-01   0.6250000E+03   0.6375000E+04   0.3523265E+02    1   15    3  1  0.5000000E+00   0.5000000E+00   0.1000000E+01    17
         1     1    -1     1   0.1700000E-01   0.6250000E+03   0.6375000E+04   0.3523265E+02    1   15    3  1  0.5000000E+00   0.5000000E+00   0.1000000E+01    18
         1     1    18     1   0.1800000E-01   0.6250000E+03   0.6375000E+04   0.3523265E+02    1   15    3  1  0.5000000E+00   0.5000000E+00   0.1000000E+01    18
         1     1    -1     1   0.1800000E-01   0.6250000E+03   0.6375000E+04   0.3523265E+02    1   15    3  1  0.5000000E+00   0.5000000E+00   0.1000000E+01    19
         1     1    19     1   0.1900000E-01   0.6250000E+03   0.6375000E+04   0.3523265E+02    1   15    3  1  0.5000000E+00   0.5000000E+00   0.1000000E+01    19
         1     1    -1     1   0.1900000E-01   0.6250000E+03   0.6375000E+04   0.3523265E+02    1   15    3  1  0.5000000E+00   0.5000000E+00   0.1000000E+01    20
         1     1    20     1   0.2000000E-01   0.6250000E+03   0.6375000E+04   0.3523265E+02    1   15    3  1  0.5000000E+00   0.5000000E+00   0.1000000E+01    20
         1     1    -1     1   0.2000000E-01   0.6250000E+03   0.6375000E+04   0.3523265E+02    1   15    3  1  0.5000000E+00   0.5000000E+00   0.1000000E+01    21
         1     1    21     1   0.2100000E-01   0.6250000E+03   0.6375000E+04   0.3523265E+02    1   15    3  1  0.5000000E+00   0.5000000E+00   0.1000000E+01    21
         1     1    -1     1   0.2100000E-01   0.6250000E+03   0.6375000E+04   0.3523265E+02    1   15    3  1  0.5000000E+00   0.5000000E+00   0.1000000E+01    22
         1     1    22     1   0.2200000E-01   0.6250000E+03   0.6375000E+04   0.3523265E+02    1   15    3  1  0.5000000E+00   0.5000000E+00   0.1000000E+01    22
         1     1    -1     1   0.2200000E-01   0.6250000E+03   0.6375000E+04   0.3523265E+02    1   15    3  1  0.5000000E+00   0.5000000E+00   0.1000000E+01    23
         1     1    23     1   0.2300000E-01   0.6250000E+03   0.6375000E+04   0.3523265E+02    1   15    3  1  0.5000000E+00   0.5000000E+00   0.1000000E+01    23
         1     1    -1     1   0.2300000E-01   0.6250000E+03   0.6375000E+04   0.3523265E+02    1   15    3  1  0.5000000E+00   0.5000000E+00   0.1000000E+01    24
         1     1    24     1   0.2400000E-01   0.6250000E+03   0.6375000E+04   0.3523265E+02    1   15    3  1  0.5000000E+00   0.5000000E+00   0.1000000E+01    24
         1     1    -1     1   0.2400000E-01   0.6250000E+03   0.6375000E+04   0.3523265E+02    1   15    3  1  0.5000000E+00   0.5000000E+00   0.1000000E+01    25
         1     1    25     1   0.2500000E-01   0.6250000E+03   0.6375000E+04   0.3523265E+02    1   15    3  1  0.5000000E+00   0.5000000E+00   0.1000000E+01    25
         1     1    -1     1   0.2500000E-01   0.6250000E+03   0.6375000E+04   0.3523265E+02    1   15    3  1  0.5000000E+00   0.5000000E+00   0.1000000E+01    26
         1     1    26     1   0.2600000E-01   0.6250000E+03   0.6375000E+04   0.3523265E+02    1   15    3  1  0.5000000E+00   0.5000000E+00   0.1000000E+01    26
         1     1    -1     1   0.2600000E-01   0.6250000E+03   0.6375000E+04   0.3523265E+02    1   15    3  1  0.5000000E+00   0.5000000E+00   0.1000000E+01    27
         1     1    27     1   0.2700000E-01   0.6250000E+03   0.6375000E+04   0.3523265E+02    1   15    3  1  0.5000000E+00   0.5000000E+00   0.1000000E+01    27
         1     1    -1     1   0.2700000E-01   0.6250000E+03   0.6375000E+04   0.3523265E+02    1   15    3  1  0.5000000E+00   0.5000000E+00   0.1000000E+01    28
         1     1    28     1   0.2800000E-01   0.6250000E+03   0.6375000E+04   0.3523265E+02    1   15    3  1  0.5000000E+00   0.5000000E+00   0.1000000E+01    28
         1     1    -1     1   0.2800000E-01   0.6250000E+03   0.6375000E+04   0.3523265E+02    1   15    3  1  0.5000000E+00   0.5000000E+00   0.1000000E+01    29
         1     1    29     1   0.2900000E-01   0.6250000E+03   0.6375000E+04   0.3523265E+02    1   15    3  1  0.5000000E+00   0.5000000E+00   0.1000000E+01    29
         1     1    -1     1   0.2900000E-01   0.6250000E+03   0.6375000E+04   0.3523265E+02    1   15    3  1  0.5000000E+00   0.5000000E+00   0.1000000E+01    30
         1     1    30     1   0.3000000E-01   0.6250000E+03   0.6375000E+04   0.3523265E+02    1   15    3  1  0.5000000E+00   0.5000000E+00   0.1000000E+01    30
         1     1    -1     1   0.3000000E-01   0.6250000E+03   0.6375000E+04   0.3523265E+02    1   15    3  1  0.5000000E+00   0.5000000E+00   0.1000000E+01    31
         1     1    31     1   0.3100000E-01   0.6250000E+03   0.6375000E+04   0.3523265E+02    1   15    3  1  0.5000000E+00   0.5000000E+00   0.1000000E+01    31
         1     1    -1     1   0.3100000E-01   0.6250000E+03   0.6375000E+04   0.3523265E+02    1   15    3  1  0.5000000E+00   0.5000000E+00   0.1000000E+01    32
         1     1    32     1   0.3200000E-01   0.6250000E+03   0.6375000E+04   0.3523265E+02    1   15    3  1  0.5000000E+00   0.5000000E+00   0.1000000E+01    32
         1     1    -1     1   0.3200000E-01   0.6250000E+03   0.6375000E+04   0.3523265E+02    1   15    3  1  0.5000000E+00   0.5000000E+00   0.1000000E+01    33
         1     1    33     1   0.3300000E-01   0.6250000E+03   0.6375000E+04   0.3523265E+02    1   15    3  1  0.5000000E+00   0.5000000E+00   0.1000000E+01    33
         1     1    -1     1   0.3300000E-01   0.6250000E+03   0.6375000E+04   0.3523265E+02    1   15    3  1  0.5000000E+00   0.5000000E+00   0.1000000E+01    34
         1     1    34     1   0.3400000E-01   0.6250000E+03   0.6375000E+04   0.3523265E+02    1   15    3  1  0.5000000E+00   0.5000000E+00   0.1000000E+01    34
         1     1    -1     1   0.3400000E-01   0.6250000E+03   0.6375000E+04   0.3523265E+02    1   15    3  1  0.5000000E+00   0.5000000E+00   0.1000000E+01    35
         1     1    35     1   0.3500000E-01   0.6250000E+03   0.6375000E+04   0.3523265E+02    1   15    3  1  0.5000000E+00   0.5000000E+00   0.1000000E+01    35
         1     1    -1     1   0.3500000E-01   0.6250000E+03   0.6375000E+04   0.3523265E+02    1   15    3  1  0.5000000E+00   0.5000000E+00   0.1000000E+01    36
         1     1    36     1   0.3599999E-01   0.6250000E+03   0.6375000E+04   0.3523265E+02    1   15    3  1  0.5000000E+00   0.5000000E+00   0.1000000E+01    36
         1     1    -1     1   0.3599999E-01   0.6250000E+03   0.6375000E+04   0.3523265E+02    1   15    3  1  0.5000000E+00   0.5000000E+00   0.1000000E+01    37
         1     1    37     1   0.3699999E-01   0.6250000E+03   0.6375000E+04   0.3523265E+02    1   15    3  1  0.5000000E+00   0.5000000E+00   0.1000000E+01    37
         1     1    -1     1   0.3699999E-01   0.6250000E+03   0.6375000E+04   0.3523265E+02    1   15    3  1  0.5000000E+00   0.5000000E+00   0.1000000E+01    38
         1     1    38     1   0.3799999E-01   0.6250000E+03   0.6375000E+04   0.3523265E+02    1   15    3  1  0.5000000E+00   0.5000000E+00   0.1000000E+01    38
         1     1    -1     1   0.3799999E-01   0.6250000E+03   0.6375000E+04   0.3523265E+02    1   15    3  1  0.5000000E+00   0.5000000E+00   0.1000000E+01    39
         1     1    39     1   0.3899999E-01   0.6250000E+03   0.6375000E+04   0.3523265E+02    1   15    3  1  0.5000000E+00   0.5000000E+00   0.1000000E+01    39
         1     1    -1     1   0.3899999E-01   0.6250000E+03   0.6375000E+04   0.3523265E+02    1   15    3  1  0.5000000E+00   0.5000000E+00   0.1000000E+01    40
         1     1    40     1   0.3999999E-01   0.6250000E+03   0.6375000E+04   0.3523265E+02    1   15    3  1  0.5000000E+00   0.5000000E+00   0.1000000E+01    40
         1     1    -1     1   0.3999999E-01   0.6250000E+03   0.6375000E+04   0.3523265E+02    1   15    3  1  0.5000000E+00   0.5000000E+00   0.1000000E+01    41
         1     1    41     1   0.4099999E-01   0.6250000E+03   0.6375000E+04   0.3523265E+02    1   15    3  1  0.5000000E+00   0.5000000E+00   0.1000000E+01    41
         1     1    -1     1   0.4099999E-01   0.6250000E+03   0.6375000E+04   0.3523265E+02    1   15    3  1  0.5000000E+00   0.5000000E+00   0.1000000E+01    42
         1     1    42     1   0.4199998E-01   0.6250000E+03   0.6375000E+04   0.3523265E+02    1   15    3  1  0.5000000E+00   0.5000000E+00   0.1000000E+01    42
         1     1    -1     1   0.4199998E-01   0.6250000E+03   0.6375000E+04   0.3523265E+02    1   15    3  1  0.5000000E+00   0.5000000E+00   0.1000000E+01    43
         1     1    43     1   0.4299998E-01   0.6250000E+03   0.6375000E+04   0.3523265E+02    1   15    3  1  0.5000000E+00   0.5000000E+00   0.1000000E+01    43
         1     1    -1     1   0.4299998E-01   0.6250000E+03   0.6375000E+04   0.3523265E+02    1   15    3  1  0.5000000E+00   0.5000000E+00   0.1000000E+01    44
         1     1    44     1   0.4399998E-01   0.6250000E+03   0.6375000E+04   0.3523265E+02    1   15    3  1  0.5000000E+00   0.5000000E+00   0.1000000E+01    44
         1     1    -1     1   0.4399998E-01   0.6250000E+03   0.6375000E+04   0.3523265E+02    1   15    3  1  0.5000000E+00   0.5000000E+00   0.1000000E+01    45
         1     1    45     1   0.4499998E-01   0.6250000E+03   0.6375000E+04   0.3523265E+02    1   15    3  1  0.5000000E+00   0.5000000E+00   0.1000000E+01    45
         1     1    -1     1   0.4499998E-01   0.6250000E+03   0.6375000E+04   0.3523265E+02    1   15    3  1  0.5000000E+00   0.5000000E+00   0.1000000E+01    46
         1     1    46     1   0.4599998E-01   0.6250000E+03   0.6375000E+04   0.3523265E+02    1   15    3  1  0.5000000E+00   0.5000000E+00   0.1000000E+01    46
         1     1    -1     1   0.4599998E-01   0.6250000E+03   0.6375000E+04   0.3523265E+02    1   15    3  1  0.5000000E+00   0.5000000E+00   0.1000000E+01    47
         1     1    47     1   0.4699998E-01   0.6250000E+03   0.6375000E+04   0.3523265E+02    1   15    3  1  0.5000000E+00   0.5000000E+00   0.1000000E+01    47
         1     1    -1     1   0.4699998E-01   0.6250000E+03   0.6375000E+04   0.3523265E+02    1   15    3  1  0.5000000E+00   0.5000000E+00   0.1000000E+01    48
         1     1    48     1   0.4799997E-01   0.6250000E+03   0.6375000E+04   0.3523265E+02    1   15    3  1  0.5000000E+00   0.5000000E+00   0.1000000E+01    48
         1     1    -1     1   0.4799997E-01   0.6250000E+03   0.6375000E+04   0.3523265E+02    1   15    3  1  0.5000000E+00   0.5000000E+00   0.1000000E+01    49
         1     1    49     1   0.4899997E-01   0.6250000E+03   0.6375000E+04   0.3523265E+02    1   15    3  1  0.5000000E+00   0.5000000E+00   0.1000000E+01    49
         1     1    -1     1   0.4899997E-01   0.6250000E+03   0.6375000E+04   0.3523265E+02    1   15    3  1  0.5000000E+00   0.5000000E+00   0.1000000E+01    50
         1     1    50     1   0.4999997E-01   0.6250000E+03   0.6375000E+04   0.3523265E+02    1   15    3  1  0.5000000E+00   0.5000000E+00   0.1000000E+01    50
         1     1    -1     1   0.4999997E-01   0.6250000E+03   0.6375000E+04   0.3523265E+02    1   15    3  1  0.5000000E+00   0.5000000E+00   0.1000000E+01    51
         1     1    51     1   0.5099997E-01   0.6250000E+03   0.6375000E+04   0.3523265E+02    1   15    3  1  0.5000000E+00   0.5000000E+00   0.1000000E+01    51
         1     1    -1     1   0.5099997E-01   0.6250000E+03   0.6375000E+04   0.3523265E+02    1   15    3  1  0.5000000E+00   0.5000000E+00   0.1000000E+01    52
         1     1    52     1   0.5199997E-01   0.6250000E+03   0.6375000E+04   0.3523265E+02    1   15    3  1  0.5000000E+00   0.5000000E+00   0.1000000E+01    52
         1     1    -1     1   0.5199997E-01   0.6250000E+03   0.6375000E+04   0.3523265E+02    1   15    3  1  0.5000000E+00   0.5000000E+00   0.1000000E+01    53
         1     1    53     1   0.5299997E-01   0.6250000E+03   0.6375000E+04   0.3523265E+02    1   15    3  1  0.5000000E+00   0.5000000E+00   0.1000000E+01    53
         1     1    -1     1   0.5299997E-01   0.6250000E+03   0.6375000E+04   0.3523265E+02    1   15    3  1  0.5000000E+00   0.5000000E+00   0.1000000E+01    54
         1     1    54     1   0.5399996E-01   0.6250000E+03   0.6375000E+04   0.3523265E+02    1   15    3  1  0.5000000E+00   0.5000000E+00   0.1000000E+01    54
         1     1    -1     1   0.5399996E-01   0.6250000E+03   0.6375000E+04   0.3523265E+02    1   15    3  1  0.5000000E+00   0.5000000E+00   0.1000000E+01    55
         1     1    55     1   0.5499996E-01   0.6250000E+03   0.6375000E+04   0.3523265E+02    1   15    3  1  0.5000000E+00   0.5000000E+00   0.1000000E+01    55
         1     1    -1     1   0.5499996E-01   0.6250000E+03   0.6375000E+04   0.3523265E+02    1   15    3  1  0.5000000E+00   0.5000000E+00   0.1000000E+01    56
         1     1    56     1   0.5599996E-01   0.6250000E+03   0.6375000E+04   0.3523265E+02    1   15    3  1  0.5000000E+00   0.5000000E+00   0.1000000E+01    56
         1     1    -1     1   0.5599996E-01   0.6250000E+03   0.6375000E+04   0.3523265E+02    1   15    3  1  0.5000000E+00   0.5000000E+00   0.1000000E+01    57
         1     1    57     1   0.5699996E-01   0.6250000E+03   0.6375000E+04   0.3523265E+02    1   15    3  1  0.5000000E+00   0.5000000E+00   0.1000000E+01    57
         1     1    -1     1   0.5699996E-01   0.6250000E+03   0.6375000E+04   0.3523265E+02    1   15    3  1  0.5000000E+00   0.5000000E+00   0.1000000E+01    58
         1     1    58     1   0.5799996E-01   0.6250000E+03   0.6375000E+04   0.3523265E+02    1   15    3  1  0.5000000E+00   0.5000000E+00   0.1000000E+01    58
         1     1    -1     1   0.5799996E-01   0.6250000E+03   0.6375000E+04   0.3523265E+02    1   15    3  1  0.5000000E+00   0.5000000E+00   0.1000000E+01    59
         1     1    59     1   0.5899996E-01   0.6250000E+03   0.6375000E+04   0.3523265E+02    1   15    3  1  0.5000000E+00   0.5000000E+00   0.1000000E+01    59
         1     1    -1     1   0.5899996E-01   0.6250000E+03   0.6375000E+04   0.3523265E+02    1   15    3  1  0.5000000E+00   0.5000000E+00   0.1000000E+01    60
         1     1    60     1   0.5999995E-01   0.6250000E+03   0.6375000E+04   0.3523265E+02    1   15    3  1  0.5000000E+00   0.5000000E+00   0.1000000E+01    60
         1     1    -1     1   0.5999995E-01   0.6250000E+03   0.6375000E+04   0.3523265E+02    1   15    3  1  0.5000000E+00   0.5000000E+00   0.1000000E+01    61
         1     1    61     1   0.6099995E-01   0.6250000E+03   0.6375000E+04   0.3523265E+02    1   15    3  1  0.5000000E+00   0.5000000E+00   0.1000000E+01    61
         1     1    -1     1   0.6099995E-01   0.6250000E+03   0.6375000E+04   0.3523265E+02    1   15    3  1  0.5000000E+00   0.5000000E+00   0.1000000E+01    62
         1     1    62     1   0.6199995E-01   0.6250000E+03   0.6375000E+04   0.3523265E+02    1   15    3  1  0.5000000E+00   0.5000000E+00   0.1000000E+01    62
         1     1    -1     1   0.6199995E-01   0.6250000E+03   0.6375000E+04   0.3523265E+02    1   15    3  1  0.5000000E+00   0.5000000E+00   0.1000000E+01    63
         1     1    63     1   0.6299995E-01   0.6250000E+03   0.6375000E+04   0.3523265E+02    1   15    3  1  0.5000000E+00   0.5000000E+00   0.1000000E+01    63
         1     1    -1     1   0.6299995E-01   0.6250000E+03   0.6375000E+04   0.3523265E+02    1   15    3  1  0.5000000E+00   0.5000000E+00   0.1000000E+01    64
         1     1    64     1   0.6399995E-01   0.6250000E+03   0.6375000E+04   0.3523265E+02    1   15    3  1  0.5000000E+00   0.5000000E+00   0.1000000E+01    64
         1     1    -1     1   0.6399995E-01   0.6250000E+03   0.6375000E+04   0.3523265E+02    1   15    3  1  0.5000000E+00   0.5000000E+00   0.1000000E+01    65
         1     1    65     1   0.6499995E-01   0.6250000E+03   0.6375000E+04   0.3523265E+02    1   15    3  1  0.5000000E+00   0.5000000E+00   0.1000000E+01    65
         1     1    -1     1   0.6499995E-01   0.6250000E+03   0.6375000E+04   0.3523265E+02    1   15    3  1  0.5000000E+00   0.5000000E+00   0.1000000E+01    66
         1     1    66     1   0.6599995E-01   0.6250000E+03   0.6375000E+04   0.3523265E+02    1   15    3  1  0.5000000E+00   0.5000000E+00   0.1000000E+01    66
         1     1    -1     1   0.6599995E-01   0.6250000E+03   0.6375000E+04   0.3523265E+02    1   15    3  1  0.5000000E+00   0.5000000E+00   0.1000000E+01    67
         1     1    67     1   0.6699996E-01   0.6250000E+03   0.6375000E+04   0.3523265E+02    1   15    3  1  0.5000000E+00   0.5000000E+00   0.1000000E+01    67
         1     1    -1     1   0.6699996E-01   0.6250000E+03   0.6375000E+04   0.3523265E+02    1   15    3  1  0.5000000E+00   0.5000000E+00   0.1000000E+01    68
         1     1    68     1   0.6799996E-01   0.6250000E+03   0.6375000E+04   0.3523265E+02    1   15    3  1  0.5000000E+00   0.5000000E+00   0.1000000E+01    68
         1     1    -1     1   0.6799996E-01   0.6250000E+03   0.6375000E+04   0.3523265E+02    1   15    3  1  0.5000000E+00   0.5000000E+00   0.1000000E+01    69
         1     1    69     1   0.6899996E-01   0.6250000E+03   0.6375000E+04   0.3523265E+02    1   15    3  1  0.5000000E+00   0.5000000E+00   0.1000000E+01    69
         1     1    -1     1   0.6899996E-01   0.6250000E+03   0.6375000E+04   0.3523265E+02    1   15    3  1  0.5000000E+00   0.5000000E+00   0.1000000E+01    70
         1     1    70     1   0.6999996E-01   0.6250000E+03   0.6375000E+04   0.3523265E+02    1   15    3  1  0.5000000E+00   0.5000000E+00   0.1000000E+01    70
         1     1    -1     1   0.6999996E-01   0.6250000E+03   0.6375000E+04   0.3523265E+02    1   15    3  1  0.5000000E+00   0.5000000E+00   0.1000000E+01    71
         1     1    71     1   0.7099997E-01   0.6250000E+03   0.6375000E+04   0.3523265E+02    1   15    3  1  0.5000000E+00   0.5000000E+00   0.1000000E+01    71
         1     1    -1     1   0.7099997E-01   0.6250000E+03   0.6375000E+04   0.3523265E+02    1   15    3  1  0.5000000E+00   0.5000000E+00   0.1000000E+01    72
         1     1    72     1   0.7199997E-01   0.6250000E+03   0.6375000E+04   0.3523265E+02    1   15    3  1  0.5000000E+00   0.5000000E+00   0.1000000E+01    72
         1     1    -1     1   0.7199997E-01   0.6250000E+03   0.6375000E+04   0.3523265E+02    1   15    3  1  0.5000000E+00   0.5000000E+00   0.1000000E+01    73
         1     1    73     1   0.7299997E-01   0.6250000E+03   0.6375000E+04   0.3523265E+02    1   15    3  1  0.5000000E+00   0.5000000E+00   0.1000000E+01    73
         1     1    -1     1   0.7299997E-01   0.6250000E+03   0.6375000E+04   0.3523265E+02    1   15    3  1  0.5000000E+00   0.5000000E+00   0.1000000E+01    74
         1     1    74     1   0.7399997E-01   0.6250000E+03   0.6375000E+04   0.3523265E+02    1   15    3  1  0.5000000E+00   0.5000000E+00   0.1000000E+01    74
         1     1    -1     1   0.7399997E-01   0.6250000E+03   0.6375000E+04   0.3523265E+02    1   15    3  1  0.5000000E+00   0.5000000E+00   0.1000000E+01    75
         1     1    75     1   0.7499997E-01   0.6250000E+03   0.6375000E+04   0.3523265E+02    1   15    3  1  0.5000000E+00   0.5000000E+00   0.1000000E+01    75
         1     1    -1     1   0.7499997E-01   0.6250000E+03   0.6375000E+04   0.3523265E+02    1   15    3  1  0.5000000E+00   0.5000000E+00   0.1000000E+01    76
         1     1    76     1   0.7599998E-01   0.6250000E+03   0.6375000E+04   0.3523265E+02    1   15    3  1  0.5000000E+00   0.5000000E+00   0.1000000E+01    76
         1     1    -1     1   0.7599998E-01   0.6250000E+03   0.6375000E+04   0.3523265E+02    1   15    3  1  0.5000000E+00   0.5000000E+00   0.1000000E+01    77
         1     1    77     1   0.7699998E-01   0.6250000E+03   0.6375000E+04   0.3523265E+02    1   15    3  1  0.5000000E+00   0.5000000E+00   0.1000000E+01    77
         1     1    -1     1   0.7699998E-01   0.6250000E+03   0.6375000E+04   0.3523265E+02    1   15    3  1  0.5000000E+00   0.5000000E+00   0.1000000E+01    78
         1     1    78     1   0.7799998E-01   0.6250000E+03   0.6375000E+04   0.3523265E+02    1   15    3  1  0.5000000E+00   0.5000000E+00   0.1000000E+01    78
         1     1    -1     1   0.7799998E-01   0.6250000E+03   0.6375000E+04   0.3523265E+02    1   15    3  1  0.5000000E+00   0.5000000E+00   0.1000000E+01    79
         1     1    79     1   0.7899998E-01   0.6250000E+03   0.6375000E+04   0.3523265E+02    1   15    3  1  0.5000000E+00   0.5000000E+00   0.1000000E+01    79
         1     1    -1     1   0.7899998E-01   0.6250000E+03   0.6375000E+04   0.3523265E+02    1   15    3  1  0.5000000E+00   0.5000000E+00   0.1000000E+01    80
         1     1    80     1   0.7999998E-01   0.6250000E+03   0.6375000E+04   0.3523265E+02    1   15    3  1  0.5000000E+00   0.5000000E+00   0.1000000E+01    80
         1     1    -1     1   0.7999998E-01   0.6250000E+03   0.6375000E+04   0.3523265E+02    1   15    3  1  0.5000000E+00   0.5000000E+00   0.1000000E+01    81
         1     1    81     1   0.8099999E-01   0.6250000E+03   0.6375000E+04   0.3523265E+02    1   15    3  1  0.5000000E+00   0.5000000E+00   0.1000000E+01    81
         1     1    -1     1   0.8099999E-01   0.6250000E+03   0.6375000E+04   0.3523265E+02    1   15    3  1  0.5000000E+00   0.5000000E+00   0.1000000E+01    82
         1     1    82     1   0.8199999E-01   0.6250000E+03   0.6375000E+04   0.3523265E+02    1   15    3  1  0.5000000E+00   0.5000000E+00   0.1000000E+01    82
         1     1    -1     1   0.8199999E-01   0.6250000E+03   0.6375000E+04   0.3523265E+02    1   15    3  1  0.5000000E+00   0.5000000E+00   0.1000000E+01    83
         1     1    83     1   0.8299999E-01   0.6250000E+03   0.6375000E+04   0.3523265E+02    1   15    3  1  0.5000000E+00   0.5000000E+00   0.1000000E+01    83
         1     1    -1     1   0.8299999E-01   0.6250000E+03   0.6375000E+04   0.3523265E+02    1   15    3  1  0.5000000E+00   0.5000000E+00   0.1000000E+01    84
         1     1    84     1   0.8399999E-01   0.6250000E+03   0.6375000E+04   0.3523265E+02    1   15    3  1  0.5000000E+00   0.5000000E+00   0.1000000E+01    84
         1     1    -1     1   0.8399999E-01   0.6250000E+03   0.6375000E+04   0.3523265E+02    1   15    3  1  0.5000000E+00   0.5000000E+00   0.1000000E+01    85
         1     1    85     1   0.8499999E-01   0.6250000E+03   0.6375000E+04   0.3523265E+02    1   15    3  1  0.5000000E+00   0.5000000E+00   0.1000000E+01    85
         1     1    -1     1   0.8499999E-01   0.6250000E+03   0.6375000E+04   0.3523265E+02    1   15    3  1  0.5000000E+00   0.5000000E+00   0.1000000E+01    86
         1     1    86     1   0.8600000E-01   0.6250000E+03   0.6375000E+04   0.3523265E+02    1   15    3  1  0.5000000E+00   0.5000000E+00   0.1000000E+01    86
         1     1    -1     1   0.8600000E-01   0.6250000E+03   0.6375000E+04   0.3523265E+02    1   15    3  1  0.5000000E+00   0.5000000E+00   0.1000000E+01    87
         1     1    87     1   0.8700000E-01   0.6250000E+03   0.6375000E+04   0.3523265E+02    1   15    3  1  0.5000000E+00   0.5000000E+00   0.1000000E+01    87
         1     1    -1     1   0.8700000E-01   0.6250000E+03   0.6375000E+04   0.3523265E+02    1   15    3  1  0.5000000E+00   0.5000000E+00   0.1000000E+01    88
         1     1    88     1   0.8800000E-01   0.6250000E+03   0.6375000E+04   0.3523265E+02    1   15    3  1  0.5000000E+00   0.5000000E+00   0.1000000E+01    88
         1     1    -1     1   0.8800000E-01   0.6250000E+03   0.6375000E+04   0.3523265E+02    1   15    3  1  0.5000000E+00   0.5000000E+00   0.1000000E+01    89
         1     1    89     1   0.8900000E-01   0.6250000E+03   0.6375000E+04   0.3523265E+02    1   15    3  1  0.5000000E+00   0.5000000E+00   0.1000000E+01    89
         1     1    -1     1   0.8900000E-01   0.6250000E+03   0.6375000E+04   0.3523265E+02    1   15    3  1  0.5000000E+00   0.5000000E+00   0.1000000E+01    90
         1     1    90     1   0.9000000E-01   0.6250000E+03   0.6375000E+04   0.3523265E+02    1   15    3  1  0.5000000E+00   0.5000000E+00   0.1000000E+01    90
         1     1    -1     1   0.9000000E-01   0.6250000E+03   0.6375000E+04   0.3523265E+02    1   15    3  1  0.5000000E+00   0.5000000E+00   0.1000000E+01    91
         1     1    91     1   0.9100001E-01   0.6250000E+03   0.6375000E+04   0.3523265E+02    1   15    3  1  0.5000000E+00   0.5000000E+00   0.1000000E+01    91