# RCH package for  MODFLOW-NWT, generated by Flopy.
         3        50
         1        -1 # Stress period 1
INTERNAL               1     (FREE) -1 #rech_1                        
   5.875200E-05   5.875200E-05   5.875200E-05   5.875200E-05   5.875200E-05   5.875200E-05   5.875200E-05   5.875200E-05   5.875200E-05   5.875200E-05   5.875200E-05   5.875200E-05   5.875200E-05   5.875200E-05   5.875200E-05   5.875200E-05   5.875200E-05   5.875200E-05   5.875200E-05   5.875200E-05
   5.875200E-05   5.875200E-05   5.875200E-05   5.875200E-05   5.875200E-05   5.875200E-05   5.875200E-05   5.875200E-05   5.875200E-05   5.875200E-05   5.875200E-05   5.875200E-05   5.875200E-05   5.875200E-05   5.875200E-05   5.875200E-05   5.875200E-05   5.875200E-05   5.875200E-05   5.875200E-05
   5.875200E-05   5.875200E-05   5.875200E-05   5.875200E-05   5.875200E-05   5.875200E-05   5.875200E-05   5.875200E-05   5.875200E-05   5.875200E-05   5.875200E-05   5.875200E-05   5.875200E-05   5.875200E-05   5.875200E-05   5.875200E-05   5.875200E-05   5.875200E-05   5.875200E-05   5.875200E-05
   5.875200E-05   5.875200E-05   5.875200E-05   5.875200E-05   5.875200E-05   5.875200E-05   5.875200E-05   5.875200E-05   5.875200E-05   5.875200E-05   5.875200E-05   5.875200E-05   5.875200E-05   5.875200E-05   5.875200E-05   5.875200E-05   5.875200E-05   5.875200E-05   5.875200E-05   5.875200E-05
   5.875200E-05   5.875200E-05   5.875200E-05   5.875200E-05   5.875200E-05   5.875200E-05   5.875200E-05   5.875200E-05   5.875200E-05   5.875200E-05   5.875200E-05   5.875200E-05   5.875200E-05   5.875200E-05   5.875200E-05   5.875200E-05   5.875200E-05   5.875200E-05   5.875200E-05   5.875200E-05
   5.875200E-05   5.875200E-05   5.875200E-05   5.875200E-05   5.875200E-05   5.875200E-05   5.875200E-05   5.875200E-05   5.875200E-05   5.875200E-05   5.875200E-05   5.875200E-05   5.875200E-05   5.875200E-05   5.875200E-05   5.875200E-05   5.875200E-05   5.875200E-05   5.875200E-05   5.875200E-05
   5.875200E-05   5.875200E-05   5.875200E-05   5.875200E-05   5.875200E-05   5.875200E-05   5.875200E-05   5.875200E-05   5.875200E-05   5.875200E-05   5.875200E-05   5.875200E-05   5.875200E-05   5.875200E-05   5.875200E-05   5.875200E-05   5.875200E-05   5.875200E-05   5.875200E-05   5.875200E-05
   5.875200E-05   5.875200E-05   5.875200E-05   5.875200E-05   5.875200E-05   5.875200E-05   5.875200E-05   5.875200E-05   5.875200E-05   5.875200E-05   5.875200E-05   5.875200E-05   5.875200E-05   5.875200E-05   5.875200E-05   5.875200E-05   5.875200E-05   5.875200E-05   5.875200E-05   5.875200E-05
   5.875200E-05   5.875200E-05   5.875200E-05   5.875200E-05   5.875200E-05   5.875200E-05   5.875200E-05   5.875200E-05   5.875200E-05   5.875200E-05   5.875200E-05   5.875200E-05   5.875200E-05   5.875200E-05   5.875200E-05   5.875200E-05   5.875200E-05   5.875200E-05   5.875200E-05   5.875200E-05
   5.875200E-05   5.875200E-05   5.875200E-05   5.875200E-05   5.875200E-05   5.875200E-05   5.875200E-05   5.875200E-05   5.875200E-05   5.875200E-05   5.875200E-05   5.875200E-05   5.875200E-05   5.875200E-05   5.875200E-05   5.875200E-05   5.875200E-05   5.875200E-05   5.875200E-05   5.875200E-05
   5.875200E-05   5.875200E-05   5.875200E-05   5.875200E-05   5.875200E-05   5.875200E-05   5.875200E-05   5.875200E-05   5.875200E-05   5.875200E-05   5.875200E-05   5.875200E-05   5.875200E-05   5.875200E-05   5.875200E-05   5.875200E-05   5.875200E-05   5.875200E-05   5.875200E-05   5.875200E-05
   5.875200E-05   5.875200E-05   5.875200E-05   5.875200E-05   5.875200E-05   5.875200E-05   5.875200E-05   5.875200E-05   5.875200E-05   5.875200E-05   5.875200E-05   5.875200E-05   5.875200E-05   5.875200E-05   5.875200E-05   5.875200E-05   5.875200E-05   5.875200E-05   5.875200E-05   5.875200E-05
   5.875200E-05   5.875200E-05   5.875200E-05   5.875200E-05   5.875200E-05   5.875200E-05   5.875200E-05   5.875200E-05   5.875200E-05   5.875200E-05   5.875200E-05   5.875200E-05   5.875200E-05   5.875200E-05   5.875200E-05   5.875200E-05   5.875200E-05   5.875200E-05   5.875200E-05   5.875200E-05
   5.875200E-05   5.875200E-05   5.875200E-05   5.875200E-05   5.875200E-05   5.875200E-05   5.875200E-05   5.875200E-05   5.875200E-05   5.875200E-05   5.875200E-05   5.875200E-05   5.875200E-05   5.875200E-05   5.875200E-05   5.875200E-05   5.875200E-05   5.875200E-05   5.875200E-05   5.875200E-05
   5.875200E-05   5.875200E-05   5.875200E-05   5.875200E-05   5.875200E-05   5.875200E-05   5.875200E-05   5.875200E-05   5.875200E-05   5.875200E-05   5.875200E-05   5.875200E-05   5.875200E-05   5.875200E-05   5.875200E-05   5.875200E-05   5.875200E-05   5.875200E-05   5.875200E-05   5.875200E-05
   5.875200E-05   5.875200E-05   5.875200E-05   5.875200E-05   5.875200E-05   5.875200E-05   5.875200E-05   5.875200E-05   5.875200E-05   5.875200E-05   5.875200E-05   5.875200E-05   5.875200E-05   5.875200E-05   5.875200E-05   5.875200E-05   5.875200E-05   5.875200E-05   5.875200E-05   5.875200E-05
   5.875200E-05   5.875200E-05   5.875200E-05   5.875200E-05   5.875200E-05   5.875200E-05   5.875200E-05   5.875200E-05   5.875200E-05   5.875200E-05   5.875200E-05   5.875200E-05   5.875200E-05   5.875200E-05   5.875200E-05   5.875200E-05   5.875200E-05   5.875200E-05   5.875200E-05   5.875200E-05
   5.875200E-05   5.875200E-05   5.875200E-05   5.875200E-05   5.875200E-05   5.875200E-05   5.875200E-05   5.875200E-05   5.875200E-05   5.875200E-05   5.875200E-05   5.875200E-05   5.875200E-05   5.875200E-05   5.875200E-05   5.875200E-05   5.875200E-05   5.875200E-05   5.875200E-05   5.875200E-05
   5.875200E-05   5.875200E-05   5.875200E-05   5.875200E-05   5.875200E-05   5.875200E-05   5.875200E-05   5.875200E-05   5.875200E-05   5.875200E-05   5.875200E-05   5.875200E-05   5.875200E-05   5.875200E-05   5.875200E-05   5.875200E-05   5.875200E-05   5.875200E-05   5.875200E-05   5.875200E-05
   5.875200E-05   5.875200E-05   5.875200E-05   5.875200E-05   5.875200E-05   5.875200E-05   5.875200E-05   5.875200E-05   5.875200E-05   5.875200E-05   5.875200E-05   5.875200E-05   5.875200E-05   5.875200E-05   5.875200E-05   5.875200E-05   5.875200E-05   5.875200E-05   5.875200E-05   5.875200E-05
   5.875200E-05   5.875200E-05   5.875200E-05   5.875200E-05   5.875200E-05   5.875200E-05   5.875200E-05   5.875200E-05   5.875200E-05   5.875200E-05   5.875200E-05   5.875200E-05   5.875200E-05   5.875200E-05   5.875200E-05   5.875200E-05   5.875200E-05   5.875200E-05   5.875200E-05   5.875200E-05
   5.875200E-05   5.875200E-05   5.875200E-05   5.875200E-05   5.875200E-05   5.875200E-05   5.875200E-05   5.875200E-05   5.875200E-05   5.875200E-05   5.875200E-05   5.875200E-05   5.875200E-05   5.875200E-05   5.875200E-05   5.875200E-05   5.875200E-05   5.875200E-05   5.875200E-05   5.875200E-05
   5.875200E-05   5.875200E-05   5.875200E-05   5.875200E-05   5.875200E-05   5.875200E-05   5.875200E-05   5.875200E-05   5.875200E-05   5.875200E-05   5.875200E-05   5.875200E-05   5.875200E-05   5.875200E-05   5.875200E-05   5.875200E-05   5.875200E-05   5.875200E-05   5.875200E-05   5.875200E-05
   5.875200E-05   5.875200E-05   5.875200E-05   5.875200E-05   5.875200E-05   5.875200E-05   5.875200E-05   5.875200E-05   5.875200E-05   5.875200E-05   5.875200E-05   5.875200E-05   5.875200E-05   5.875200E-05   5.875200E-05   5.875200E-05   5.875200E-05   5.875200E-05   5.875200E-05   5.875200E-05
   5.875200E-05   5.875200E-05   5.875200E-05   5.875200E-05   5.875200E-05   5.875200E-05   5.875200E-05   5.875200E-05   5.875200E-05   5.875200E-05   5.875200E-05   5.875200E-05   5.875200E-05   5.875200E-05   5.875200E-05   5.875200E-05   5.875200E-05   5.875200E-05   5.875200E-05   5.875200E-05
   5.875200E-05   5.875200E-05   5.875200E-05   5.875200E-05   5.875200E-05   5.875200E-05   5.875200E-05   5.875200E-05   5.875200E-05   5.875200E-05   5.875200E-05   5.875200E-05   5.875200E-05   5.875200E-05   5.875200E-05   5.875200E-05   5.875200E-05   5.875200E-05   5.875200E-05   5.875200E-05
   5.875200E-05   5.875200E-05   5.875200E-05   5.875200E-05   5.875200E-05   5.875200E-05   5.875200E-05   5.875200E-05   5.875200E-05   5.875200E-05   5.875200E-05   5.875200E-05   5.875200E-05   5.875200E-05   5.875200E-05   5.875200E-05   5.875200E-05   5.875200E-05   5.875200E-05   5.875200E-05
   5.875200E-05   5.875200E-05   5.875200E-05   5.875200E-05   5.875200E-05   5.875200E-05   5.875200E-05   5.875200E-05   5.875200E-05   5.875200E-05   5.875200E-05   5.875200E-05   5.875200E-05   5.875200E-05   5.875200E-05   5.875200E-05   5.875200E-05   5.875200E-05   5.875200E-05   5.875200E-05
   5.875200E-05   5.875200E-05   5.875200E-05   5.875200E-05   5.875200E-05   5.875200E-05   5.875200E-05   5.875200E-05   5.875200E-05   5.875200E-05   5.875200E-05   5.875200E-05   5.875200E-05   5.875200E-05   5.875200E-05   5.875200E-05   5.875200E-05   5.875200E-05   5.875200E-05   5.875200E-05
   5.875200E-05   5.875200E-05   5.875200E-05   5.875200E-05   5.875200E-05   5.875200E-05   5.875200E-05   5.875200E-05   5.875200E-05   5.875200E-05   5.875200E-05   5.875200E-05   5.875200E-05   5.875200E-05   5.875200E-05   5.875200E-05   5.875200E-05   5.875200E-05   5.875200E-05   5.875200E-05
   5.875200E-05   5.875200E-05   5.875200E-05   5.875200E-05   5.875200E-05   5.875200E-05   5.875200E-05   5.875200E-05   5.875200E-05   5.875200E-05   5.875200E-05   5.875200E-05   5.875200E-05   5.875200E-05   5.875200E-05   5.875200E-05   5.875200E-05   5.875200E-05   5.875200E-05   5.875200E-05
   5.875200E-05   5.875200E-05   5.875200E-05   5.875200E-05   5.875200E-05   5.875200E-05   5.875200E-05   5.875200E-05   5.875200E-05   5.875200E-05   5.875200E-05   5.875200E-05   5.875200E-05   5.875200E-05   5.875200E-05   5.875200E-05   5.875200E-05   5.875200E-05   5.875200E-05   5.875200E-05
   5.875200E-05   5.875200E-05   5.875200E-05   5.875200E-05   5.875200E-05   5.875200E-05   5.875200E-05   5.875200E-05   5.875200E-05   5.875200E-05   5.875200E-05   5.875200E-05   5.875200E-05   5.875200E-05   5.875200E-05   5.875200E-05   5.875200E-05   5.875200E-05   5.875200E-05   5.875200E-05
   5.875200E-05   5.875200E-05   5.875200E-05   5.875200E-05   5.875200E-05   5.875200E-05   5.875200E-05   5.875200E-05   5.875200E-05   5.875200E-05   5.875200E-05   5.875200E-05   5.875200E-05   5.875200E-05   5.875200E-05   5.875200E-05   5.875200E-05   5.875200E-05   5.875200E-05   5.875200E-05
   5.875200E-05   5.875200E-05   5.875200E-05   5.875200E-05   5.875200E-05   5.875200E-05   5.875200E-05   5.875200E-05   5.875200E-05   5.875200E-05   5.875200E-05   5.875200E-05   5.875200E-05   5.875200E-05   5.875200E-05   5.875200E-05   5.875200E-05   5.875200E-05   5.875200E-05   5.875200E-05
   5.875200E-05   5.875200E-05   5.875200E-05   5.875200E-05   5.875200E-05   5.875200E-05   5.875200E-05   5.875200E-05   5.875200E-05   5.875200E-05   5.875200E-05   5.875200E-05   5.875200E-05   5.875200E-05   5.875200E-05   5.875200E-05   5.875200E-05   5.875200E-05   5.875200E-05   5.875200E-05
   5.875200E-05   5.875200E-05   5.875200E-05   5.875200E-05   5.875200E-05   5.875200E-05   5.875200E-05   5.875200E-05   5.875200E-05   5.875200E-05   5.875200E-05   5.875200E-05   5.875200E-05   5.875200E-05   5.875200E-05   5.875200E-05   5.875200E-05   5.875200E-05   5.875200E-05   5.875200E-05
   5.875200E-05   5.875200E-05   5.875200E-05   5.875200E-05   5.875200E-05   5.875200E-05   5.875200E-05   5.875200E-05   5.875200E-05   5.875200E-05   5.875200E-05   5.875200E-05   5.875200E-05   5.875200E-05   5.875200E-05   5.875200E-05   5.875200E-05   5.875200E-05   5.875200E-05   5.875200E-05
   5.875200E-05   5.875200E-05   5.875200E-05   5.875200E-05   5.875200E-05   5.875200E-05   5.875200E-05   5.875200E-05   5.875200E-05   5.875200E-05   5.875200E-05   5.875200E-05   5.875200E-05   5.875200E-05   5.875200E-05   5.875200E-05   5.875200E-05   5.875200E-05   5.875200E-05   5.875200E-05
   5.875200E-05   5.875200E-05   5.875200E-05   5.875200E-05   5.875200E-05   5.875200E-05   5.875200E-05   5.875200E-05   5.875200E-05   5.875200E-05   5.875200E-05   5.875200E-05   5.875200E-05   5.875200E-05   5.875200E-05   5.875200E-05   5.875200E-05   5.875200E-05   5.875200E-05   5.875200E-05
         1        -1 # Stress period 2
INTERNAL               1     (FREE) -1 #rech_2                        
   5.184000E-05   5.184000E-05   5.184000E-05   5.184000E-05   5.184000E-05   5.184000E-05   5.184000E-05   5.184000E-05   5.184000E-05   5.184000E-05   5.184000E-05   5.184000E-05   5.184000E-05   5.184000E-05   5.184000E-05   5.184000E-05   5.184000E-05   5.184000E-05   5.184000E-05   5.184000E-05
   5.184000E-05   5.184000E-05   5.184000E-05   5.184000E-05   5.184000E-05   5.184000E-05   5.184000E-05   5.184000E-05   5.184000E-05   5.184000E-05   5.184000E-05   5.184000E-05   5.184000E-05   5.184000E-05   5.184000E-05   5.184000E-05   5.184000E-05   5.184000E-05   5.184000E-05   5.184000E-05
   5.184000E-05   5.184000E-05   5.184000E-05   5.184000E-05   5.184000E-05   5.184000E-05   5.184000E-05   5.184000E-05   5.184000E-05   5.184000E-05   5.184000E-05   5.184000E-05   5.184000E-05   5.184000E-05   5.184000E-05   5.184000E-05   5.184000E-05   5.184000E-05   5.184000E-05   5.184000E-05
   5.184000E-05   5.184000E-05   5.184000E-05   5.184000E-05   5.184000E-05   5.184000E-05   5.184000E-05   5.184000E-05   5.184000E-05   5.184000E-05   5.184000E-05   5.184000E-05   5.184000E-05   5.184000E-05   5.184000E-05   5.184000E-05   5.184000E-05   5.184000E-05   5.184000E-05   5.184000E-05
   5.184000E-05   5.184000E-05   5.184000E-05   5.184000E-05   5.184000E-05   5.184000E-05   5.184000E-05   5.184000E-05   5.184000E-05   5.184000E-05   5.184000E-05   5.184000E-05   5.184000E-05   5.184000E-05   5.184000E-05   5.184000E-05   5.184000E-05   5.184000E-05   5.184000E-05   5.184000E-05
   5.184000E-05   5.184000E-05   5.184000E-05   5.184000E-05   5.184000E-05   5.184000E-05   5.184000E-05   5.184000E-05   5.184000E-05   5.184000E-05   5.184000E-05   5.184000E-05   5.184000E-05   5.184000E-05   5.184000E-05   5.184000E-05   5.184000E-05   5.184000E-05   5.184000E-05   5.184000E-05
   5.184000E-05   5.184000E-05   5.184000E-05   5.184000E-05   5.184000E-05   5.184000E-05   5.184000E-05   5.184000E-05   5.184000E-05   5.184000E-05   5.184000E-05   5.184000E-05   5.184000E-05   5.184000E-05   5.184000E-05   5.184000E-05   5.184000E-05   5.184000E-05   5.184000E-05   5.184000E-05
   5.184000E-05   5.184000E-05   5.184000E-05   5.184000E-05   5.184000E-05   5.184000E-05   5.184000E-05   5.184000E-05   5.184000E-05   5.184000E-05   5.184000E-05   5.184000E-05   5.184000E-05   5.184000E-05   5.184000E-05   5.184000E-05   5.184000E-05   5.184000E-05   5.184000E-05   5.184000E-05
   5.184000E-05   5.184000E-05   5.184000E-05   5.184000E-05   5.184000E-05   5.184000E-05   5.184000E-05   5.184000E-05   5.184000E-05   5.184000E-05   5.184000E-05   5.184000E-05   5.184000E-05   5.184000E-05   5.184000E-05   5.184000E-05   5.184000E-05   5.184000E-05   5.184000E-05   5.184000E-05
   5.184000E-05   5.184000E-05   5.184000E-05   5.184000E-05   5.184000E-05   5.184000E-05   5.184000E-05   5.184000E-05   5.184000E-05   5.184000E-05   5.184000E-05   5.184000E-05   5.184000E-05   5.184000E-05   5.184000E-05   5.184000E-05   5.184000E-05   5.184000E-05   5.184000E-05   5.184000E-05
   5.184000E-05   5.184000E-05   5.184000E-05   5.184000E-05   5.184000E-05   5.184000E-05   5.184000E-05   5.184000E-05   5.184000E-05   5.184000E-05   5.184000E-05   5.184000E-05   5.184000E-05   5.184000E-05   5.184000E-05   5.184000E-05   5.184000E-05   5.184000E-05   5.184000E-05   5.184000E-05
   5.184000E-05   5.184000E-05   5.184000E-05   5.184000E-05   5.184000E-05   5.184000E-05   5.184000E-05   5.184000E-05   5.184000E-05   5.184000E-05   5.184000E-05   5.184000E-05   5.184000E-05   5.184000E-05   5.184000E-05   5.184000E-05   5.184000E-05   5.184000E-05   5.184000E-05   5.184000E-05
   5.184000E-05   5.184000E-05   5.184000E-05   5.184000E-05   5.184000E-05   5.184000E-05   5.184000E-05   5.184000E-05   5.184000E-05   5.184000E-05   5.184000E-05   5.184000E-05   5.184000E-05   5.184000E-05   5.184000E-05   5.184000E-05   5.184000E-05   5.184000E-05   5.184000E-05   5.184000E-05
   5.184000E-05   5.184000E-05   5.184000E-05   5.184000E-05   5.184000E-05   5.184000E-05   5.184000E-05   5.184000E-05   5.184000E-05   5.184000E-05   5.184000E-05   5.184000E-05   5.184000E-05   5.184000E-05   5.184000E-05   5.184000E-05   5.184000E-05   5.184000E-05   5.184000E-05   5.184000E-05
   5.184000E-05   5.184000E-05   5.184000E-05   5.184000E-05   5.184000E-05   5.184000E-05   5.184000E-05   5.184000E-05   5.184000E-05   5.184000E-05   5.184000E-05   5.184000E-05   5.184000E-05   5.184000E-05   5.184000E-05   5.184000E-05   5.184000E-05   5.184000E-05   5.184000E-05   5.184000E-05
   5.184000E-05   5.184000E-05   5.184000E-05   5.184000E-05   5.184000E-05   5.184000E-05   5.184000E-05   5.184000E-05   5.184000E-05   5.184000E-05   5.184000E-05   5.184000E-05   5.184000E-05   5.184000E-05   5.184000E-05   5.184000E-05   5.184000E-05   5.184000E-05   5.184000E-05   5.184000E-05
   5.184000E-05   5.184000E-05   5.184000E-05   5.184000E-05   5.184000E-05   5.184000E-05   5.184000E-05   5.184000E-05   5.184000E-05   5.184000E-05   5.184000E-05   5.184000E-05   5.184000E-05   5.184000E-05   5.184000E-05   5.184000E-05   5.184000E-05   5.184000E-05   5.184000E-05   5.184000E-05
   5.184000E-05   5.184000E-05   5.184000E-05   5.184000E-05   5.184000E-05   5.184000E-05   5.184000E-05   5.184000E-05   5.184000E-05   5.184000E-05   5.184000E-05   5.184000E-05   5.184000E-05   5.184000E-05   5.184000E-05   5.184000E-05   5.184000E-05   5.184000E-05   5.184000E-05   5.184000E-05
   5.184000E-05   5.184000E-05   5.184000E-05   5.184000E-05   5.184000E-05   5.184000E-05   5.184000E-05   5.184000E-05   5.184000E-05   5.184000E-05   5.184000E-05   5.184000E-05   5.184000E-05   5.184000E-05   5.184000E-05   5.184000E-05   5.184000E-05   5.184000E-05   5.184000E-05   5.184000E-05
   5.184000E-05   5.184000E-05   5.184000E-05   5.184000E-05   5.184000E-05   5.184000E-05   5.184000E-05   5.184000E-05   5.184000E-05   5.184000E-05   5.184000E-05   5.184000E-05   5.184000E-05   5.184000E-05   5.184000E-05   5.184000E-05   5.184000E-05   5.184000E-05   5.184000E-05   5.184000E-05
   5.184000E-05   5.184000E-05   5.184000E-05   5.184000E-05   5.184000E-05   5.184000E-05   5.184000E-05   5.184000E-05   5.184000E-05   5.184000E-05   5.184000E-05   5.184000E-05   5.184000E-05   5.184000E-05   5.184000E-05   5.184000E-05   5.184000E-05   5.184000E-05   5.184000E-05   5.184000E-05
   5.184000E-05   5.184000E-05   5.184000E-05   5.184000E-05   5.184000E-05   5.184000E-05   5.184000E-05   5.184000E-05   5.184000E-05   5.184000E-05   5.184000E-05   5.184000E-05   5.184000E-05   5.184000E-05   5.184000E-05   5.184000E-05   5.184000E-05   5.184000E-05   5.184000E-05   5.184000E-05
   5.184000E-05   5.184000E-05   5.184000E-05   5.184000E-05   5.184000E-05   5.184000E-05   5.184000E-05   5.184000E-05   5.184000E-05   5.184000E-05   5.184000E-05   5.184000E-05   5.184000E-05   5.184000E-05   5.184000E-05   5.184000E-05   5.184000E-05   5.184000E-05   5.184000E-05   5.184000E-05
   5.184000E-05   5.184000E-05   5.184000E-05   5.184000E-05   5.184000E-05   5.184000E-05   5.184000E-05   5.184000E-05   5.184000E-05   5.184000E-05   5.184000E-05   5.184000E-05   5.184000E-05   5.184000E-05   5.184000E-05   5.184000E-05   5.184000E-05   5.184000E-05   5.184000E-05   5.184000E-05
   5.184000E-05   5.184000E-05   5.184000E-05   5.184000E-05   5.184000E-05   5.184000E-05   5.184000E-05   5.184000E-05   5.184000E-05   5.184000E-05   5.184000E-05   5.184000E-05   5.184000E-05   5.184000E-05   5.184000E-05   5.184000E-05   5.184000E-05   5.184000E-05   5.184000E-05   5.184000E-05
   5.184000E-05   5.184000E-05   5.184000E-05   5.184000E-05   5.184000E-05   5.184000E-05   5.184000E-05   5.184000E-05   5.184000E-05   5.184000E-05   5.184000E-05   5.184000E-05   5.184000E-05   5.184000E-05   5.184000E-05   5.184000E-05   5.184000E-05   5.184000E-05   5.184000E-05   5.184000E-05
   5.184000E-05   5.184000E-05   5.184000E-05   5.184000E-05   5.184000E-05   5.184000E-05   5.184000E-05   5.184000E-05   5.184000E-05   5.184000E-05   5.184000E-05   5.184000E-05   5.184000E-05   5.184000E-05   5.184000E-05   5.184000E-05   5.184000E-05   5.184000E-05   5.184000E-05   5.184000E-05
   5.184000E-05   5.184000E-05   5.184000E-05   5.184000E-05   5.184000E-05   5.184000E-05   5.184000E-05   5.184000E-05   5.184000E-05   5.184000E-05   5.184000E-05   5.184000E-05   5.184000E-05   5.184000E-05   5.184000E-05   5.184000E-05   5.184000E-05   5.184000E-05   5.184000E-05   5.184000E-05
   5.184000E-05   5.184000E-05   5.184000E-05   5.184000E-05   5.184000E-05   5.184000E-05   5.184000E-05   5.184000E-05   5.184000E-05   5.184000E-05   5.184000E-05   5.184000E-05   5.184000E-05   5.184000E-05   5.184000E-05   5.184000E-05   5.184000E-05   5.184000E-05   5.184000E-05   5.184000E-05
   5.184000E-05   5.184000E-05   5.184000E-05   5.184000E-05   5.184000E-05   5.184000E-05   5.184000E-05   5.184000E-05   5.184000E-05   5.184000E-05   5.184000E-05   5.184000E-05   5.184000E-05   5.184000E-05   5.184000E-05   5.184000E-05   5.184000E-05   5.184000E-05   5.184000E-05   5.184000E-05
   5.184000E-05   5.184000E-05   5.184000E-05   5.184000E-05   5.184000E-05   5.184000E-05   5.184000E-05   5.184000E-05   5.184000E-05   5.184000E-05   5.184000E-05   5.184000E-05   5.184000E-05   5.184000E-05   5.184000E-05   5.184000E-05   5.184000E-05   5.184000E-05   5.184000E-05   5.184000E-05
   5.184000E-05   5.184000E-05   5.184000E-05   5.184000E-05   5.184000E-05   5.184000E-05   5.184000E-05   5.184000E-05   5.184000E-05   5.184000E-05   5.184000E-05   5.184000E-05   5.184000E-05   5.184000E-05   5.184000E-05   5.184000E-05   5.184000E-05   5.184000E-05   5.184000E-05   5.184000E-05
   5.184000E-05   5.184000E-05   5.184000E-05   5.184000E-05   5.184000E-05   5.184000E-05   5.184000E-05   5.184000E-05   5.184000E-05   5.184000E-05   5.184000E-05   5.184000E-05   5.184000E-05   5.184000E-05   5.184000E-05   5.184000E-05   5.184000E-05   5.184000E-05   5.184000E-05   5.184000E-05
   5.184000E-05   5.184000E-05   5.184000E-05   5.184000E-05   5.184000E-05   5.184000E-05   5.184000E-05   5.184000E-05   5.184000E-05   5.184000E-05   5.184000E-05   5.184000E-05   5.184000E-05   5.184000E-05   5.184000E-05   5.184000E-05   5.184000E-05   5.184000E-05   5.184000E-05   5.184000E-05
   5.184000E-05   5.184000E-05   5.184000E-05   5.184000E-05   5.184000E-05   5.184000E-05   5.184000E-05   5.184000E-05   5.184000E-05   5.184000E-05   5.184000E-05   5.184000E-05   5.184000E-05   5.184000E-05   5.184000E-05   5.184000E-05   5.184000E-05   5.184000E-05   5.184000E-05   5.184000E-05
   5.184000E-05   5.184000E-05   5.184000E-05   5.184000E-05   5.184000E-05   5.184000E-05   5.184000E-05   5.184000E-05   5.184000E-05   5.184000E-05   5.184000E-05   5.184000E-05   5.184000E-05   5.184000E-05   5.184000E-05   5.184000E-05   5.184000E-05   5.184000E-05   5.184000E-05   5.184000E-05
   5.184000E-05   5.184000E-05   5.184000E-05   5.184000E-05   5.184000E-05   5.184000E-05   5.184000E-05   5.184000E-05   5.184000E-05   5.184000E-05   5.184000E-05   5.184000E-05   5.184000E-05   5.184000E-05   5.184000E-05   5.184000E-05   5.184000E-05   5.184000E-05   5.184000E-05   5.184000E-05
   5.184000E-05   5.184000E-05   5.184000E-05   5.184000E-05   5.184000E-05   5.184000E-05   5.184000E-05   5.184000E-05   5.184000E-05   5.184000E-05   5.184000E-05   5.184000E-05   5.184000E-05   5.184000E-05   5.184000E-05   5.184000E-05   5.184000E-05   5.184000E-05   5.184000E-05   5.184000E-05
   5.184000E-05   5.184000E-05   5.184000E-05   5.184000E-05   5.184000E-05   5.184000E-05   5.184000E-05   5.184000E-05   5.184000E-05   5.184000E-05   5.184000E-05   5.184000E-05   5.184000E-05   5.184000E-05   5.184000E-05   5.184000E-05   5.184000E-05   5.184000E-05   5.184000E-05   5.184000E-05
   5.184000E-05   5.184000E-05   5.184000E-05   5.184000E-05   5.184000E-05   5.184000E-05   5.184000E-05   5.184000E-05   5.184000E-05   5.184000E-05   5.184000E-05   5.184000E-05   5.184000E-05   5.184000E-05   5.184000E-05   5.184000E-05   5.184000E-05   5.184000E-05   5.184000E-05   5.184000E-05
