# WEL package for  MODFLOW-NWT, generated by Flopy.
         6        50 
         6         0 # stress period 1
         3        10        17          -375.0
         3        12        14          -375.0
         3        21        15          -375.0
         3        27        11          -375.0
         3        30         7          -375.0
         3        35        13          -375.0
         6         0 # stress period 2
         3        10        17          -300.0
         3        12        14          -300.0
         3        21        15          -300.0
         3        27        11          -300.0
         3        30         7          -300.0
         3        35        13          -300.0
