# DRN package for  MODFLOW-NWT, generated by Flopy.
        30        50
        30         0 # stress period 1
         1        40         6            33.5         10000.0
         1        40         7            33.5         10000.0
         1        40         8            33.5         10000.0
         1        40         9            33.5         10000.0
         1        40        10            33.5         10000.0
         1        40        11            33.5         10000.0
         1        40        12            33.5         10000.0
         1        40        13            33.5         10000.0
         1        40        14            33.5         10000.0
         1        40        15            33.5         10000.0
         2        40         6            33.5         10000.0
         2        40         7            33.5         10000.0
         2        40         8            33.5         10000.0
         2        40         9            33.5         10000.0
         2        40        10            33.5         10000.0
         2        40        11            33.5         10000.0
         2        40        12            33.5         10000.0
         2        40        13            33.5         10000.0
         2        40        14            33.5         10000.0
         2        40        15            33.5         10000.0
         3        40         6            33.5         10000.0
         3        40         7            33.5         10000.0
         3        40         8            33.5         10000.0
         3        40         9            33.5         10000.0
         3        40        10            33.5         10000.0
         3        40        11            33.5         10000.0
         3        40        12            33.5         10000.0
         3        40        13            33.5         10000.0
         3        40        14            33.5         10000.0
         3        40        15            33.5         10000.0
        30         0 # stress period 2
         1        40         6            33.5         10000.0
         1        40         7            33.5         10000.0
         1        40         8            33.5         10000.0
         1        40         9            33.5         10000.0
         1        40        10            33.5         10000.0
         1        40        11            33.5         10000.0
         1        40        12            33.5         10000.0
         1        40        13            33.5         10000.0
         1        40        14            33.5         10000.0
         1        40        15            33.5         10000.0
         2        40         6            33.5         10000.0
         2        40         7            33.5         10000.0
         2        40         8            33.5         10000.0
         2        40         9            33.5         10000.0
         2        40        10            33.5         10000.0
         2        40        11            33.5         10000.0
         2        40        12            33.5         10000.0
         2        40        13            33.5         10000.0
         2        40        14            33.5         10000.0
         2        40        15            33.5         10000.0
         3        40         6            33.5         10000.0
         3        40         7            33.5         10000.0
         3        40         8            33.5         10000.0
         3        40         9            33.5         10000.0
         3        40        10            33.5         10000.0
         3        40        11            33.5         10000.0
         3        40        12            33.5         10000.0
         3        40        13            33.5         10000.0
         3        40        14            33.5         10000.0
         3        40        15            33.5         10000.0
        30         0 # stress period 3
         1        40         6            33.5         10000.0
         1        40         7            33.5         10000.0
         1        40         8            33.5         10000.0
         1        40         9            33.5         10000.0
         1        40        10            33.5         10000.0
         1        40        11            33.5         10000.0
         1        40        12            33.5         10000.0
         1        40        13            33.5         10000.0
         1        40        14            33.5         10000.0
         1        40        15            33.5         10000.0
         2        40         6            33.5         10000.0
         2        40         7            33.5         10000.0
         2        40         8            33.5         10000.0
         2        40         9            33.5         10000.0
         2        40        10            33.5         10000.0
         2        40        11            33.5         10000.0
         2        40        12            33.5         10000.0
         2        40        13            33.5         10000.0
         2        40        14            33.5         10000.0
         2        40        15            33.5         10000.0
         3        40         6            33.5         10000.0
         3        40         7            33.5         10000.0
         3        40         8            33.5         10000.0
         3        40         9            33.5         10000.0
         3        40        10            33.5         10000.0
         3        40        11            33.5         10000.0
         3        40        12            33.5         10000.0
         3        40        13            33.5         10000.0
         3        40        14            33.5         10000.0
         3        40        15            33.5         10000.0
        30         0 # stress period 4
         1        40         6            33.5         10000.0
         1        40         7            33.5         10000.0
         1        40         8            33.5         10000.0
         1        40         9            33.5         10000.0
         1        40        10            33.5         10000.0
         1        40        11            33.5         10000.0
         1        40        12            33.5         10000.0
         1        40        13            33.5         10000.0
         1        40        14            33.5         10000.0
         1        40        15            33.5         10000.0
         2        40         6            33.5         10000.0
         2        40         7            33.5         10000.0
         2        40         8            33.5         10000.0
         2        40         9            33.5         10000.0
         2        40        10            33.5         10000.0
         2        40        11            33.5         10000.0
         2        40        12            33.5         10000.0
         2        40        13            33.5         10000.0
         2        40        14            33.5         10000.0
         2        40        15            33.5         10000.0
         3        40         6            33.5         10000.0
         3        40         7            33.5         10000.0
         3        40         8            33.5         10000.0
         3        40         9            33.5         10000.0
         3        40        10            33.5         10000.0
         3        40        11            33.5         10000.0
         3        40        12            33.5         10000.0
         3        40        13            33.5         10000.0
         3        40        14            33.5         10000.0
         3        40        15            33.5         10000.0
        30         0 # stress period 5
         1        40         6            33.5         10000.0
         1        40         7            33.5         10000.0
         1        40         8            33.5         10000.0
         1        40         9            33.5         10000.0
         1        40        10            33.5         10000.0
         1        40        11            33.5         10000.0
         1        40        12            33.5         10000.0
         1        40        13            33.5         10000.0
         1        40        14            33.5         10000.0
         1        40        15            33.5         10000.0
         2        40         6            33.5         10000.0
         2        40         7            33.5         10000.0
         2        40         8            33.5         10000.0
         2        40         9            33.5         10000.0
         2        40        10            33.5         10000.0
         2        40        11            33.5         10000.0
         2        40        12            33.5         10000.0
         2        40        13            33.5         10000.0
         2        40        14            33.5         10000.0
         2        40        15            33.5         10000.0
         3        40         6            33.5         10000.0
         3        40         7            33.5         10000.0
         3        40         8            33.5         10000.0
         3        40         9            33.5         10000.0
         3        40        10            33.5         10000.0
         3        40        11            33.5         10000.0
         3        40        12            33.5         10000.0
         3        40        13            33.5         10000.0
         3        40        14            33.5         10000.0
         3        40        15            33.5         10000.0
        30         0 # stress period 6
         1        40         6            33.5         10000.0
         1        40         7            33.5         10000.0
         1        40         8            33.5         10000.0
         1        40         9            33.5         10000.0
         1        40        10            33.5         10000.0
         1        40        11            33.5         10000.0
         1        40        12            33.5         10000.0
         1        40        13            33.5         10000.0
         1        40        14            33.5         10000.0
         1        40        15            33.5         10000.0
         2        40         6            33.5         10000.0
         2        40         7            33.5         10000.0
         2        40         8            33.5         10000.0
         2        40         9            33.5         10000.0
         2        40        10            33.5         10000.0
         2        40        11            33.5         10000.0
         2        40        12            33.5         10000.0
         2        40        13            33.5         10000.0
         2        40        14            33.5         10000.0
         2        40        15            33.5         10000.0
         3        40         6            33.5         10000.0
         3        40         7            33.5         10000.0
         3        40         8            33.5         10000.0
         3        40         9            33.5         10000.0
         3        40        10            33.5         10000.0
         3        40        11            33.5         10000.0
         3        40        12            33.5         10000.0
         3        40        13            33.5         10000.0
         3        40        14            33.5         10000.0
         3        40        15            33.5         10000.0
        30         0 # stress period 7
         1        40         6            33.5         10000.0
         1        40         7            33.5         10000.0
         1        40         8            33.5         10000.0
         1        40         9            33.5         10000.0
         1        40        10            33.5         10000.0
         1        40        11            33.5         10000.0
         1        40        12            33.5         10000.0
         1        40        13            33.5         10000.0
         1        40        14            33.5         10000.0
         1        40        15            33.5         10000.0
         2        40         6            33.5         10000.0
         2        40         7            33.5         10000.0
         2        40         8            33.5         10000.0
         2        40         9            33.5         10000.0
         2        40        10            33.5         10000.0
         2        40        11            33.5         10000.0
         2        40        12            33.5         10000.0
         2        40        13            33.5         10000.0
         2        40        14            33.5         10000.0
         2        40        15            33.5         10000.0
         3        40         6            33.5         10000.0
         3        40         7            33.5         10000.0
         3        40         8            33.5         10000.0
         3        40         9            33.5         10000.0
         3        40        10            33.5         10000.0
         3        40        11            33.5         10000.0
         3        40        12            33.5         10000.0
         3        40        13            33.5         10000.0
         3        40        14            33.5         10000.0
         3        40        15            33.5         10000.0
        30         0 # stress period 8
         1        40         6            33.5         10000.0
         1        40         7            33.5         10000.0
         1        40         8            33.5         10000.0
         1        40         9            33.5         10000.0
         1        40        10            33.5         10000.0
         1        40        11            33.5         10000.0
         1        40        12            33.5         10000.0
         1        40        13            33.5         10000.0
         1        40        14            33.5         10000.0
         1        40        15            33.5         10000.0
         2        40         6            33.5         10000.0
         2        40         7            33.5         10000.0
         2        40         8            33.5         10000.0
         2        40         9            33.5         10000.0
         2        40        10            33.5         10000.0
         2        40        11            33.5         10000.0
         2        40        12            33.5         10000.0
         2        40        13            33.5         10000.0
         2        40        14            33.5         10000.0
         2        40        15            33.5         10000.0
         3        40         6            33.5         10000.0
         3        40         7            33.5         10000.0
         3        40         8            33.5         10000.0
         3        40         9            33.5         10000.0
         3        40        10            33.5         10000.0
         3        40        11            33.5         10000.0
         3        40        12            33.5         10000.0
         3        40        13            33.5         10000.0
         3        40        14            33.5         10000.0
         3        40        15            33.5         10000.0
        30         0 # stress period 9
         1        40         6            33.5         10000.0
         1        40         7            33.5         10000.0
         1        40         8            33.5         10000.0
         1        40         9            33.5         10000.0
         1        40        10            33.5         10000.0
         1        40        11            33.5         10000.0
         1        40        12            33.5         10000.0
         1        40        13            33.5         10000.0
         1        40        14            33.5         10000.0
         1        40        15            33.5         10000.0
         2        40         6            33.5         10000.0
         2        40         7            33.5         10000.0
         2        40         8            33.5         10000.0
         2        40         9            33.5         10000.0
         2        40        10            33.5         10000.0
         2        40        11            33.5         10000.0
         2        40        12            33.5         10000.0
         2        40        13            33.5         10000.0
         2        40        14            33.5         10000.0
         2        40        15            33.5         10000.0
         3        40         6            33.5         10000.0
         3        40         7            33.5         10000.0
         3        40         8            33.5         10000.0
         3        40         9            33.5         10000.0
         3        40        10            33.5         10000.0
         3        40        11            33.5         10000.0
         3        40        12            33.5         10000.0
         3        40        13            33.5         10000.0
         3        40        14            33.5         10000.0
         3        40        15            33.5         10000.0
        30         0 # stress period 10
         1        40         6            33.5         10000.0
         1        40         7            33.5         10000.0
         1        40         8            33.5         10000.0
         1        40         9            33.5         10000.0
         1        40        10            33.5         10000.0
         1        40        11            33.5         10000.0
         1        40        12            33.5         10000.0
         1        40        13            33.5         10000.0
         1        40        14            33.5         10000.0
         1        40        15            33.5         10000.0
         2        40         6            33.5         10000.0
         2        40         7            33.5         10000.0
         2        40         8            33.5         10000.0
         2        40         9            33.5         10000.0
         2        40        10            33.5         10000.0
         2        40        11            33.5         10000.0
         2        40        12            33.5         10000.0
         2        40        13            33.5         10000.0
         2        40        14            33.5         10000.0
         2        40        15            33.5         10000.0
         3        40         6            33.5         10000.0
         3        40         7            33.5         10000.0
         3        40         8            33.5         10000.0
         3        40         9            33.5         10000.0
         3        40        10            33.5         10000.0
         3        40        11            33.5         10000.0
         3        40        12            33.5         10000.0
         3        40        13            33.5         10000.0
         3        40        14            33.5         10000.0
         3        40        15            33.5         10000.0
        30         0 # stress period 11
         1        40         6            33.5         10000.0
         1        40         7            33.5         10000.0
         1        40         8            33.5         10000.0
         1        40         9            33.5         10000.0
         1        40        10            33.5         10000.0
         1        40        11            33.5         10000.0
         1        40        12            33.5         10000.0
         1        40        13            33.5         10000.0
         1        40        14            33.5         10000.0
         1        40        15            33.5         10000.0
         2        40         6            33.5         10000.0
         2        40         7            33.5         10000.0
         2        40         8            33.5         10000.0
         2        40         9            33.5         10000.0
         2        40        10            33.5         10000.0
         2        40        11            33.5         10000.0
         2        40        12            33.5         10000.0
         2        40        13            33.5         10000.0
         2        40        14            33.5         10000.0
         2        40        15            33.5         10000.0
         3        40         6            33.5         10000.0
         3        40         7            33.5         10000.0
         3        40         8            33.5         10000.0
         3        40         9            33.5         10000.0
         3        40        10            33.5         10000.0
         3        40        11            33.5         10000.0
         3        40        12            33.5         10000.0
         3        40        13            33.5         10000.0
         3        40        14            33.5         10000.0
         3        40        15            33.5         10000.0
        30         0 # stress period 12
         1        40         6            33.5         10000.0
         1        40         7            33.5         10000.0
         1        40         8            33.5         10000.0
         1        40         9            33.5         10000.0
         1        40        10            33.5         10000.0
         1        40        11            33.5         10000.0
         1        40        12            33.5         10000.0
         1        40        13            33.5         10000.0
         1        40        14            33.5         10000.0
         1        40        15            33.5         10000.0
         2        40         6            33.5         10000.0
         2        40         7            33.5         10000.0
         2        40         8            33.5         10000.0
         2        40         9            33.5         10000.0
         2        40        10            33.5         10000.0
         2        40        11            33.5         10000.0
         2        40        12            33.5         10000.0
         2        40        13            33.5         10000.0
         2        40        14            33.5         10000.0
         2        40        15            33.5         10000.0
         3        40         6            33.5         10000.0
         3        40         7            33.5         10000.0
         3        40         8            33.5         10000.0
         3        40         9            33.5         10000.0
         3        40        10            33.5         10000.0
         3        40        11            33.5         10000.0
         3        40        12            33.5         10000.0
         3        40        13            33.5         10000.0
         3        40        14            33.5         10000.0
         3        40        15            33.5         10000.0
        30         0 # stress period 13
         1        40         6            33.5         10000.0
         1        40         7            33.5         10000.0
         1        40         8            33.5         10000.0
         1        40         9            33.5         10000.0
         1        40        10            33.5         10000.0
         1        40        11            33.5         10000.0
         1        40        12            33.5         10000.0
         1        40        13            33.5         10000.0
         1        40        14            33.5         10000.0
         1        40        15            33.5         10000.0
         2        40         6            33.5         10000.0
         2        40         7            33.5         10000.0
         2        40         8            33.5         10000.0
         2        40         9            33.5         10000.0
         2        40        10            33.5         10000.0
         2        40        11            33.5         10000.0
         2        40        12            33.5         10000.0
         2        40        13            33.5         10000.0
         2        40        14            33.5         10000.0
         2        40        15            33.5         10000.0
         3        40         6            33.5         10000.0
         3        40         7            33.5         10000.0
         3        40         8            33.5         10000.0
         3        40         9            33.5         10000.0
         3        40        10            33.5         10000.0
         3        40        11            33.5         10000.0
         3        40        12            33.5         10000.0
         3        40        13            33.5         10000.0
         3        40        14            33.5         10000.0
         3        40        15            33.5         10000.0
        30         0 # stress period 14
         1        40         6            33.5         10000.0
         1        40         7            33.5         10000.0
         1        40         8            33.5         10000.0
         1        40         9            33.5         10000.0
         1        40        10            33.5         10000.0
         1        40        11            33.5         10000.0
         1        40        12            33.5         10000.0
         1        40        13            33.5         10000.0
         1        40        14            33.5         10000.0
         1        40        15            33.5         10000.0
         2        40         6            33.5         10000.0
         2        40         7            33.5         10000.0
         2        40         8            33.5         10000.0
         2        40         9            33.5         10000.0
         2        40        10            33.5         10000.0
         2        40        11            33.5         10000.0
         2        40        12            33.5         10000.0
         2        40        13            33.5         10000.0
         2        40        14            33.5         10000.0
         2        40        15            33.5         10000.0
         3        40         6            33.5         10000.0
         3        40         7            33.5         10000.0
         3        40         8            33.5         10000.0
         3        40         9            33.5         10000.0
         3        40        10            33.5         10000.0
         3        40        11            33.5         10000.0
         3        40        12            33.5         10000.0
         3        40        13            33.5         10000.0
         3        40        14            33.5         10000.0
         3        40        15            33.5         10000.0
        30         0 # stress period 15
         1        40         6            33.5         10000.0
         1        40         7            33.5         10000.0
         1        40         8            33.5         10000.0
         1        40         9            33.5         10000.0
         1        40        10            33.5         10000.0
         1        40        11            33.5         10000.0
         1        40        12            33.5         10000.0
         1        40        13            33.5         10000.0
         1        40        14            33.5         10000.0
         1        40        15            33.5         10000.0
         2        40         6            33.5         10000.0
         2        40         7            33.5         10000.0
         2        40         8            33.5         10000.0
         2        40         9            33.5         10000.0
         2        40        10            33.5         10000.0
         2        40        11            33.5         10000.0
         2        40        12            33.5         10000.0
         2        40        13            33.5         10000.0
         2        40        14            33.5         10000.0
         2        40        15            33.5         10000.0
         3        40         6            33.5         10000.0
         3        40         7            33.5         10000.0
         3        40         8            33.5         10000.0
         3        40         9            33.5         10000.0
         3        40        10            33.5         10000.0
         3        40        11            33.5         10000.0
         3        40        12            33.5         10000.0
         3        40        13            33.5         10000.0
         3        40        14            33.5         10000.0
         3        40        15            33.5         10000.0
        30         0 # stress period 16
         1        40         6            33.5         10000.0
         1        40         7            33.5         10000.0
         1        40         8            33.5         10000.0
         1        40         9            33.5         10000.0
         1        40        10            33.5         10000.0
         1        40        11            33.5         10000.0
         1        40        12            33.5         10000.0
         1        40        13            33.5         10000.0
         1        40        14            33.5         10000.0
         1        40        15            33.5         10000.0
         2        40         6            33.5         10000.0
         2        40         7            33.5         10000.0
         2        40         8            33.5         10000.0
         2        40         9            33.5         10000.0
         2        40        10            33.5         10000.0