MODPATH_ENDPOINT_FILE 6 0                                                       
 1          1          1          1   0.0000000E+00
         0          1          0          0          0          0
         1
part            
END HEADER
          1     1  1   0.0000000E+00   0.4015000E+04  1    1   15    3 6          1   0.5000000E+00   0.5000000E+00   0.1000000E+01   0.6250000E+03   0.6375000E+04   0.3509697E+02  1    1   15    3 0          1   0.5008367E+00   0.4072492E+00   0.6980330E-01   0.6252092E+03   0.6351812E+04   0.3268127E+02 part_0000
