# UPW package for  MODFLOW-NWT, generated by Flopy.
        50    -1E+30         0         0 
         1         0         0
         0         0         0
   1.000000E+00   1.000000E+00   1.000000E+00
         0         0         0
         0         0         0
CONSTANT    3.000000E+00                           #hk layer 1                    
CONSTANT    3.000000E-01                           #vka1                          
INTERNAL               1  (20E15.6) -1 #ss layer 1                    
   1.000000E-05   1.000000E-05   1.000000E-05   1.000000E-05   1.000000E-05   1.000000E-05   1.000000E-05   1.000000E-05   1.000000E-05   1.000000E-05   1.000000E-05   1.000000E-05   1.000000E-05   1.000000E-05   1.000000E-05   1.000000E-05   1.000000E-05   1.000000E-05   1.000000E-05   1.000000E-05
   1.000000E-05   1.000000E-05   1.000000E-05   1.000000E-05   1.000000E-05   1.000000E-05   1.000000E-05   1.000000E-05   1.000000E-05   1.000000E-05   1.000000E-05   1.000000E-05   1.000000E-05   1.000000E-05   1.000000E-05   1.000000E-05   1.000000E-05   1.000000E-05   1.000000E-05   1.000000E-05
   1.000000E-05   1.000000E-05   1.000000E-05   1.000000E-05   1.000000E-05   1.000000E-05   1.000000E-05   1.000000E-05   1.000000E-05   1.000000E-05   1.000000E-05   1.000000E-05   1.000000E-05   1.000000E-05   1.000000E-05   1.000000E-05   1.000000E-05   1.000000E-05   1.000000E-05   1.000000E-05
   1.000000E-05   1.000000E-05   1.000000E-05   1.000000E-05   1.000000E-05   1.000000E-05   1.000000E-05   1.000000E-05   1.000000E-05   1.000000E-05   1.000000E-05   1.000000E-05   1.000000E-05   1.000000E-05   1.000000E-05   1.000000E-05   1.000000E-05   1.000000E-05   1.000000E-05   1.000000E-05
   1.000000E-05   1.000000E-05   1.000000E-05   1.000000E-05   1.000000E-05   1.000000E-05   1.000000E-05   1.000000E-05   1.000000E-05   1.000000E-05   1.000000E-05   1.000000E-05   1.000000E-05   1.000000E-05   1.000000E-05   1.000000E-05   1.000000E-05   1.000000E-05   1.000000E-05   1.000000E-05
   1.000000E-05   1.000000E-05   1.000000E-05   1.000000E-05   1.000000E-05   1.000000E-05   1.000000E-05   1.000000E-05   1.000000E-05   1.000000E-05   1.000000E-05   1.000000E-05   1.000000E-05   1.000000E-05   1.000000E-05   1.000000E-05   1.000000E-05   1.000000E-05   1.000000E-05   1.000000E-05
   1.000000E-05   1.000000E-05   1.000000E-05   1.000000E-05   1.000000E-05   1.000000E-05   1.000000E-05   1.000000E-05   1.000000E-05   1.000000E-05   1.000000E-05   1.000000E-05   1.000000E-05   1.000000E-05   1.000000E-05   1.000000E-05   1.000000E-05   1.000000E-05   1.000000E-05   1.000000E-05
   1.000000E-05   1.000000E-05   1.000000E-05   1.000000E-05   1.000000E-05   1.000000E-05   1.000000E-05   1.000000E-05   1.000000E-05   1.000000E-05   1.000000E-05   1.000000E-05   1.000000E-05   1.000000E-05   1.000000E-05   1.000000E-05   1.000000E-05   1.000000E-05   1.000000E-05   1.000000E-05
   1.000000E-05   1.000000E-05   1.000000E-05   1.000000E-05   1.000000E-05   1.000000E-05   1.000000E-05   1.000000E-05   1.000000E-05   1.000000E-05   1.000000E-05   1.000000E-05   1.000000E-05   1.000000E-05   1.000000E-05   1.000000E-05   1.000000E-05   1.000000E-05   1.000000E-05   1.000000E-05
   1.000000E-05   1.000000E-05   1.000000E-05   1.000000E-05   1.000000E-05   1.000000E-05   1.000000E-05   1.000000E-05   1.000000E-05   1.000000E-05   1.000000E-05   1.000000E-05   1.000000E-05   1.000000E-05   1.000000E-05   1.000000E-05   1.000000E-05   1.000000E-05   1.000000E-05   1.000000E-05
   1.000000E-05   1.000000E-05   1.000000E-05   1.000000E-05   1.000000E-05   1.000000E-05   1.000000E-05   1.000000E-05   1.000000E-05   1.000000E-05   1.000000E-05   1.000000E-05   1.000000E-05   1.000000E-05   1.000000E-05   1.000000E-05   1.000000E-05   1.000000E-05   1.000000E-05   1.000000E-05
   1.000000E-05   1.000000E-05   1.000000E-05   1.000000E-05   1.000000E-05   1.000000E-05   1.000000E-05   1.000000E-05   1.000000E-05   1.000000E-05   1.000000E-05   1.000000E-05   1.000000E-05   1.000000E-05   1.000000E-05   1.000000E-05   1.000000E-05   1.000000E-05   1.000000E-05   1.000000E-05
   1.000000E-05   1.000000E-05   1.000000E-05   1.000000E-05   1.000000E-05   1.000000E-05   1.000000E-05   1.000000E-05   1.000000E-05   1.000000E-05   1.000000E-05   1.000000E-05   1.000000E-05   1.000000E-05   1.000000E-05   1.000000E-05   1.000000E-05   1.000000E-05   1.000000E-05   1.000000E-05
   1.000000E-05   1.000000E-05   1.000000E-05   1.000000E-05   1.000000E-05   1.000000E-05   1.000000E-05   1.000000E-05   1.000000E-05   1.000000E-05   1.000000E-05   1.000000E-05   1.000000E-05   1.000000E-05   1.000000E-05   1.000000E-05   1.000000E-05   1.000000E-05   1.000000E-05   1.000000E-05
   1.000000E-05   1.000000E-05   1.000000E-05   1.000000E-05   1.000000E-05   1.000000E-05   1.000000E-05   1.000000E-05   1.000000E-05   1.000000E-05   1.000000E-05   1.000000E-05   1.000000E-05   1.000000E-05   1.000000E-05   1.000000E-05   1.000000E-05   1.000000E-05   1.000000E-05   1.000000E-05
   1.000000E-05   1.000000E-05   1.000000E-05   1.000000E-05   1.000000E-05   1.000000E-05   1.000000E-05   1.000000E-05   1.000000E-05   1.000000E-05   1.000000E-05   1.000000E-05   1.000000E-05   1.000000E-05   1.000000E-05   1.000000E-05   1.000000E-05   1.000000E-05   1.000000E-05   1.000000E-05
   1.000000E-05   1.000000E-05   1.000000E-05   1.000000E-05   1.000000E-05   1.000000E-05   1.000000E-05   1.000000E-05   1.000000E-05   1.000000E-05   1.000000E-05   1.000000E-05   1.000000E-05   1.000000E-05   1.000000E-05   1.000000E-05   1.000000E-05   1.000000E-05   1.000000E-05   1.000000E-05
   1.000000E-05   1.000000E-05   1.000000E-05   1.000000E-05   1.000000E-05   1.000000E-05   1.000000E-05   1.000000E-05   1.000000E-05   1.000000E-05   1.000000E-05   1.000000E-05   1.000000E-05   1.000000E-05   1.000000E-05   1.000000E-05   1.000000E-05   1.000000E-05   1.000000E-05   1.000000E-05
   1.000000E-05   1.000000E-05   1.000000E-05   1.000000E-05   1.000000E-05   1.000000E-05   1.000000E-05   1.000000E-05   1.000000E-05   1.000000E-05   1.000000E-05   1.000000E-05   1.000000E-05   1.000000E-05   1.000000E-05   1.000000E-05   1.000000E-05   1.000000E-05   1.000000E-05   1.000000E-05
   1.000000E-05   1.000000E-05   1.000000E-05   1.000000E-05   1.000000E-05   1.000000E-05   1.000000E-05   1.000000E-05   1.000000E-05   1.000000E-05   1.000000E-05   1.000000E-05   1.000000E-05   1.000000E-05   1.000000E-05   1.000000E-05   1.000000E-05   1.000000E-05   1.000000E-05   1.000000E-05
   1.000000E-05   1.000000E-05   1.000000E-05   1.000000E-05   1.000000E-05   1.000000E-05   1.000000E-05   1.000000E-05   1.000000E-05   1.000000E-05   1.000000E-05   1.000000E-05   1.000000E-05   1.000000E-05   1.000000E-05   1.000000E-05   1.000000E-05   1.000000E-05   1.000000E-05   1.000000E-05
   1.000000E-05   1.000000E-05   1.000000E-05   1.000000E-05   1.000000E-05   1.000000E-05   1.000000E-05   1.000000E-05   1.000000E-05   1.000000E-05   1.000000E-05   1.000000E-05   1.000000E-05   1.000000E-05   1.000000E-05   1.000000E-05   1.000000E-05   1.000000E-05   1.000000E-05   1.000000E-05
   1.000000E-05   1.000000E-05   1.000000E-05   1.000000E-05   1.000000E-05   1.000000E-05   1.000000E-05   1.000000E-05   1.000000E-05   1.000000E-05   1.000000E-05   1.000000E-05   1.000000E-05   1.000000E-05   1.000000E-05   1.000000E-05   1.000000E-05   1.000000E-05   1.000000E-05   1.000000E-05
   1.000000E-05   1.000000E-05   1.000000E-05   1.000000E-05   1.000000E-05   1.000000E-05   1.000000E-05   1.000000E-05   1.000000E-05   1.000000E-05   1.000000E-05   1.000000E-05   1.000000E-05   1.000000E-05   1.000000E-05   1.000000E-05   1.000000E-05   1.000000E-05   1.000000E-05   1.000000E-05
   1.000000E-05   1.000000E-05   1.000000E-05   1.000000E-05   1.000000E-05   1.000000E-05   1.000000E-05   1.000000E-05   1.000000E-05   1.000000E-05   1.000000E-05   1.000000E-05   1.000000E-05   1.000000E-05   1.000000E-05   1.000000E-05   1.000000E-05   1.000000E-05   1.000000E-05   1.000000E-05
   1.000000E-05   1.000000E-05   1.000000E-05   1.000000E-05   1.000000E-05   1.000000E-05   1.000000E-05   1.000000E-05   1.000000E-05   1.000000E-05   1.000000E-05   1.000000E-05   1.000000E-05   1.000000E-05   1.000000E-05   1.000000E-05   1.000000E-05   1.000000E-05   1.000000E-05   1.000000E-05
   1.000000E-05   1.000000E-05   1.000000E-05   1.000000E-05   1.000000E-05   1.000000E-05   1.000000E-05   1.000000E-05   1.000000E-05   1.000000E-05   1.000000E-05   1.000000E-05   1.000000E-05   1.000000E-05   1.000000E-05   1.000000E-05   1.000000E-05   1.000000E-05   1.000000E-05   1.000000E-05
   1.000000E-05   1.000000E-05   1.000000E-05   1.000000E-05   1.000000E-05   1.000000E-05   1.000000E-05   1.000000E-05   1.000000E-05   1.000000E-05   1.000000E-05   1.000000E-05   1.000000E-05   1.000000E-05   1.000000E-05   1.000000E-05   1.000000E-05   1.000000E-05   1.000000E-05   1.000000E-05
   1.000000E-05   1.000000E-05   1.000000E-05   1.000000E-05   1.000000E-05   1.000000E-05   1.000000E-05   1.000000E-05   1.000000E-05   1.000000E-05   1.000000E-05   1.000000E-05   1.000000E-05   1.000000E-05   1.000000E-05   1.000000E-05   1.000000E-05   1.000000E-05   1.000000E-05   1.000000E-05
   1.000000E-05   1.000000E-05   1.000000E-05   1.000000E-05   1.000000E-05   1.000000E-05   1.000000E-05   1.000000E-05   1.000000E-05   1.000000E-05   1.000000E-05   1.000000E-05   1.000000E-05   1.000000E-05   1.000000E-05   1.000000E-05   1.000000E-05   1.000000E-05   1.000000E-05   1.000000E-05
   1.000000E-05   1.000000E-05   1.000000E-05   1.000000E-05   1.000000E-05   1.000000E-05   1.000000E-05   1.000000E-05   1.000000E-05   1.000000E-05   1.000000E-05   1.000000E-05   1.000000E-05   1.000000E-05   1.000000E-05   1.000000E-05   1.000000E-05   1.000000E-05   1.000000E-05   1.000000E-05
   1.000000E-05   1.000000E-05   1.000000E-05   1.000000E-05   1.000000E-05   1.000000E-05   1.000000E-05   1.000000E-05   1.000000E-05   1.000000E-05   1.000000E-05   1.000000E-05   1.000000E-05   1.000000E-05   1.000000E-05   1.000000E-05   1.000000E-05   1.000000E-05   1.000000E-05   1.000000E-05
   1.000000E-05   1.000000E-05   1.000000E-05   1.000000E-05   1.000000E-05   1.000000E-05   1.000000E-05   1.000000E-05   1.000000E-05   1.000000E-05   1.000000E-05   1.000000E-05   1.000000E-05   1.000000E-05   1.000000E-05   1.000000E-05   1.000000E-05   1.000000E-05   1.000000E-05   1.000000E-05
   1.000000E-05   1.000000E-05   1.000000E-05   1.000000E-05   1.000000E-05   1.000000E-05   1.000000E-05   1.000000E-05   1.000000E-05   1.000000E-05   1.000000E-05   1.000000E-05   1.000000E-05   1.000000E-05   1.000000E-05   1.000000E-05   1.000000E-05   1.000000E-05   1.000000E-05   1.000000E-05
   1.000000E-05   1.000000E-05   1.000000E-05   1.000000E-05   1.000000E-05   1.000000E-05   1.000000E-05   1.000000E-05   1.000000E-05   1.000000E-05   1.000000E-05   1.000000E-05   1.000000E-05   1.000000E-05   1.000000E-05   1.000000E-05   1.000000E-05   1.000000E-05   1.000000E-05   1.000000E-05
   1.000000E-05   1.000000E-05   1.000000E-05   1.000000E-05   1.000000E-05   1.000000E-05   1.000000E-05   1.000000E-05   1.000000E-05   1.000000E-05   1.000000E-05   1.000000E-05   1.000000E-05   1.000000E-05   1.000000E-05   1.000000E-05   1.000000E-05   1.000000E-05   1.000000E-05   1.000000E-05
   1.000000E-05   1.000000E-05   1.000000E-05   1.000000E-05   1.000000E-05   1.000000E-05   1.000000E-05   1.000000E-05   1.000000E-05   1.000000E-05   1.000000E-05   1.000000E-05   1.000000E-05   1.000000E-05   1.000000E-05   1.000000E-05   1.000000E-05   1.000000E-05   1.000000E-05   1.000000E-05
   1.000000E-05   1.000000E-05   1.000000E-05   1.000000E-05   1.000000E-05   1.000000E-05   1.000000E-05   1.000000E-05   1.000000E-05   1.000000E-05   1.000000E-05   1.000000E-05   1.000000E-05   1.000000E-05   1.000000E-05   1.000000E-05   1.000000E-05   1.000000E-05   1.000000E-05   1.000000E-05
   1.000000E-05   1.000000E-05   1.000000E-05   1.000000E-05   1.000000E-05   1.000000E-05   1.000000E-05   1.000000E-05   1.000000E-05   1.000000E-05   1.000000E-05   1.000000E-05   1.000000E-05   1.000000E-05   1.000000E-05   1.000000E-05   1.000000E-05   1.000000E-05   1.000000E-05   1.000000E-05
   1.000000E-05   1.000000E-05   1.000000E-05   1.000000E-05   1.000000E-05   1.000000E-05   1.000000E-05   1.000000E-05   1.000000E-05   1.000000E-05   1.000000E-05   1.000000E-05   1.000000E-05   1.000000E-05   1.000000E-05   1.000000E-05   1.000000E-05   1.000000E-05   1.000000E-05   1.000000E-05
INTERNAL               1  (20E15.6) -1 #sy layer 1                    
   1.000000E-02   1.000000E-02   1.000000E-02   1.000000E-02   1.000000E-02   1.000000E-02   1.000000E-02   1.000000E-02   1.000000E-02   1.000000E-02   1.000000E-02   1.000000E-02   1.000000E-02   1.000000E-02   1.000000E-02   1.000000E-02   1.000000E-02   1.000000E-02   1.000000E-02   1.000000E-02
   1.000000E-02   1.000000E-02   1.000000E-02   1.000000E-02   1.000000E-02   1.000000E-02   1.000000E-02   1.000000E-02   1.000000E-02   1.000000E-02   1.000000E-02   1.000000E-02   1.000000E-02   1.000000E-02   1.000000E-02   1.000000E-02   1.000000E-02   1.000000E-02   1.000000E-02   1.000000E-02
   1.000000E-02   1.000000E-02   1.000000E-02   1.000000E-02   1.000000E-02   1.000000E-02   1.000000E-02   1.000000E-02   1.000000E-02   1.000000E-02   1.000000E-02   1.000000E-02   1.000000E-02   1.000000E-02   1.000000E-02   1.000000E-02   1.000000E-02   1.000000E-02   1.000000E-02   1.000000E-02
   1.000000E-02   1.000000E-02   1.000000E-02   1.000000E-02   1.000000E-02   1.000000E-02   1.000000E-02   1.000000E-02   1.000000E-02   1.000000E-02   1.000000E-02   1.000000E-02   1.000000E-02   1.000000E-02   1.000000E-02   1.000000E-02   1.000000E-02   1.000000E-02   1.000000E-02   1.000000E-02
   1.000000E-02   1.000000E-02   1.000000E-02   1.000000E-02   1.000000E-02   1.000000E-02   1.000000E-02   1.000000E-02   1.000000E-02   1.000000E-02   1.000000E-02   1.000000E-02   1.000000E-02   1.000000E-02   1.000000E-02   1.000000E-02   1.000000E-02   1.000000E-02   1.000000E-02   1.000000E-02
   1.000000E-02   1.000000E-02   1.000000E-02   1.000000E-02   1.000000E-02   1.000000E-02   1.000000E-02   1.000000E-02   1.000000E-02   1.000000E-02   1.000000E-02   1.000000E-02   1.000000E-02   1.000000E-02   1.000000E-02   1.000000E-02   1.000000E-02   1.000000E-02   1.000000E-02   1.000000E-02
   1.000000E-02   1.000000E-02   1.000000E-02   1.000000E-02   1.000000E-02   1.000000E-02   1.000000E-02   1.000000E-02   1.000000E-02   1.000000E-02   1.000000E-02   1.000000E-02   1.000000E-02   1.000000E-02   1.000000E-02   1.000000E-02   1.000000E-02   1.000000E-02   1.000000E-02   1.000000E-02
   1.000000E-02   1.000000E-02   1.000000E-02   1.000000E-02   1.000000E-02   1.000000E-02   1.000000E-02   1.000000E-02   1.000000E-02   1.000000E-02   1.000000E-02   1.000000E-02   1.000000E-02   1.000000E-02   1.000000E-02   1.000000E-02   1.000000E-02   1.000000E-02   1.000000E-02   1.000000E-02
   1.000000E-02   1.000000E-02   1.000000E-02   1.000000E-02   1.000000E-02   1.000000E-02   1.000000E-02   1.000000E-02   1.000000E-02   1.000000E-02   1.000000E-02   1.000000E-02   1.000000E-02   1.000000E-02   1.000000E-02   1.000000E-02   1.000000E-02   1.000000E-02   1.000000E-02   1.000000E-02
   1.000000E-02   1.000000E-02   1.000000E-02   1.000000E-02   1.000000E-02   1.000000E-02   1.000000E-02   1.000000E-02   1.000000E-02   1.000000E-02   1.000000E-02   1.000000E-02   1.000000E-02   1.000000E-02   1.000000E-02   1.000000E-02   1.000000E-02   1.000000E-02   1.000000E-02   1.000000E-02
   1.000000E-02   1.000000E-02   1.000000E-02   1.000000E-02   1.000000E-02   1.000000E-02   1.000000E-02   1.000000E-02   1.000000E-02   1.000000E-02   1.000000E-02   1.000000E-02   1.000000E-02   1.000000E-02   1.000000E-02   1.000000E-02   1.000000E-02   1.000000E-02   1.000000E-02   1.000000E-02
   1.000000E-02   1.000000E-02   1.000000E-02   1.000000E-02   1.000000E-02   1.000000E-02   1.000000E-02   1.000000E-02   1.000000E-02   1.000000E-02   1.000000E-02   1.000000E-02   1.000000E-02   1.000000E-02   1.000000E-02   1.000000E-02   1.000000E-02   1.000000E-02   1.000000E-02   1.000000E-02
   1.000000E-02   1.000000E-02   1.000000E-02   1.000000E-02   1.000000E-02   1.000000E-02   1.000000E-02   1.000000E-02   1.000000E-02   1.000000E-02   1.000000E-02   1.000000E-02   1.000000E-02   1.000000E-02   1.000000E-02   1.000000E-02   1.000000E-02   1.000000E-02   1.000000E-02   1.000000E-02
   1.000000E-02   1.000000E-02   1.000000E-02   1.000000E-02   1.000000E-02   1.000000E-02   1.000000E-02   1.000000E-02   1.000000E-02   1.000000E-02   1.000000E-02   1.000000E-02   1.000000E-02   1.000000E-02   1.000000E-02   1.000000E-02   1.000000E-02   1.000000E-02   1.000000E-02   1.000000E-02
   1.000000E-02   1.000000E-02   1.000000E-02   1.000000E-02   1.000000E-02   1.000000E-02   1.000000E-02   1.000000E-02   1.000000E-02   1.000000E-02   1.000000E-02   1.000000E-02   1.000000E-02   1.000000E-02   1.000000E-02   1.000000E-02   1.000000E-02   1.000000E-02   1.000000E-02   1.000000E-02
   1.000000E-02   1.000000E-02   1.000000E-02   1.000000E-02   1.000000E-02   1.000000E-02   1.000000E-02   1.000000E-02   1.000000E-02   1.000000E-02   1.000000E-02   1.000000E-02   1.000000E-02   1.000000E-02   1.000000E-02   1.000000E-02   1.000000E-02   1.000000E-02   1.000000E-02   1.000000E-02
   1.000000E-02   1.000000E-02   1.000000E-02   1.000000E-02   1.000000E-02   1.000000E-02   1.000000E-02   1.000000E-02   1.000000E-02   1.000000E-02   1.000000E-02   1.000000E-02   1.000000E-02   1.000000E-02   1.000000E-02   1.000000E-02   1.000000E-02   1.000000E-02   1.000000E-02   1.000000E-02
   1.000000E-02   1.000000E-02   1.000000E-02   1.000000E-02   1.000000E-02   1.000000E-02   1.000000E-02   1.000000E-02   1.000000E-02   1.000000E-02   1.000000E-02   1.000000E-02   1.000000E-02   1.000000E-02   1.000000E-02   1.000000E-02   1.000000E-02   1.000000E-02   1.000000E-02   1.000000E-02
   1.000000E-02   1.000000E-02   1.000000E-02   1.000000E-02   1.000000E-02   1.000000E-02   1.000000E-02   1.000000E-02   1.000000E-02   1.000000E-02   1.000000E-02   1.000000E-02   1.000000E-02   1.000000E-02   1.000000E-02   1.000000E-02   1.000000E-02   1.000000E-02   1.000000E-02   1.000000E-02
   1.000000E-02   1.000000E-02   1.000000E-02   1.000000E-02   1.000000E-02   1.000000E-02   1.000000E-02   1.000000E-02   1.000000E-02   1.000000E-02   1.000000E-02   1.000000E-02   1.000000E-02   1.000000E-02   1.000000E-02   1.000000E-02   1.000000E-02   1.000000E-02   1.000000E-02   1.000000E-02
   1.000000E-02   1.000000E-02   1.000000E-02   1.000000E-02   1.000000E-02   1.000000E-02   1.000000E-02   1.000000E-02   1.000000E-02   1.000000E-02   1.000000E-02   1.000000E-02   1.000000E-02   1.000000E-02   1.000000E-02   1.000000E-02   1.000000E-02   1.000000E-02   1.000000E-02   1.000000E-02
   1.000000E-02   1.000000E-02   1.000000E-02   1.000000E-02   1.000000E-02   1.000000E-02   1.000000E-02   1.000000E-02   1.000000E-02   1.000000E-02   1.000000E-02   1.000000E-02   1.000000E-02   1.000000E-02   1.000000E-02   1.000000E-02   1.000000E-02   1.000000E-02   1.000000E-02   1.000000E-02
   1.000000E-02   1.000000E-02   1.000000E-02   1.000000E-02   1.000000E-02   1.000000E-02   1.000000E-02   1.000000E-02   1.000000E-02   1.000000E-02   1.000000E-02   1.000000E-02   1.000000E-02   1.000000E-02   1.000000E-02   1.000000E-02   1.000000E-02   1.000000E-02   1.000000E-02   1.000000E-02
   1.000000E-02   1.000000E-02   1.000000E-02   1.000000E-02   1.000000E-02   1.000000E-02   1.000000E-02   1.000000E-02   1.000000E-02   1.000000E-02   1.000000E-02   1.000000E-02   1.000000E-02   1.000000E-02   1.000000E-02   1.000000E-02   1.000000E-02   1.000000E-02   1.000000E-02   1.000000E-02
   1.000000E-02   1.000000E-02   1.000000E-02   1.000000E-02   1.000000E-02   1.000000E-02   1.000000E-02   1.000000E-02   1.000000E-02   1.000000E-02   1.000000E-02   1.000000E-02   1.000000E-02   1.000000E-02   1.000000E-02   1.000000E-02   1.000000E-02   1.000000E-02   1.000000E-02   1.000000E-02
   1.000000E-02   1.000000E-02   1.000000E-02   1.000000E-02   1.000000E-02   1.000000E-02   1.000000E-02   1.000000E-02   1.000000E-02   1.000000E-02   1.000000E-02   1.000000E-02   1.000000E-02   1.000000E-02   1.000000E-02   1.000000E-02   1.000000E-02   1.000000E-02   1.000000E-02   1.000000E-02
   1.000000E-02   1.000000E-02   1.000000E-02   1.000000E-02   1.000000E-02   1.000000E-02   1.000000E-02   1.000000E-02   1.000000E-02   1.000000E-02   1.000000E-02   1.000000E-02   1.000000E-02   1.000000E-02   1.000000E-02   1.000000E-02   1.000000E-02   1.000000E-02   1.000000E-02   1.000000E-02
   1.000000E-02   1.000000E-02   1.000000E-02   1.000000E-02   1.000000E-02   1.000000E-02   1.000000E-02   1.000000E-02   1.000000E-02   1.000000E-02   1.000000E-02   1.000000E-02   1.000000E-02   1.000000E-02   1.000000E-02   1.000000E-02   1.000000E-02   1.000000E-02   1.000000E-02   1.000000E-02
   1.000000E-02   1.000000E-02   1.000000E-02   1.000000E-02   1.000000E-02   1.000000E-02   1.000000E-02   1.000000E-02   1.000000E-02   1.000000E-02   1.000000E-02   1.000000E-02   1.000000E-02   1.000000E-02   1.000000E-02   1.000000E-02   1.000000E-02   1.000000E-02   1.000000E-02   1.000000E-02
   1.000000E-02   1.000000E-02   1.000000E-02   1.000000E-02   1.000000E-02   1.000000E-02   1.000000E-02   1.000000E-02   1.000000E-02   1.000000E-02   1.000000E-02   1.000000E-02   1.000000E-02   1.000000E-02   1.000000E-02   1.000000E-02   1.000000E-02   1.000000E-02   1.000000E-02   1.000000E-02
   1.000000E-02   1.000000E-02   1.000000E-02   1.000000E-02   1.000000E-02   1.000000E-02   1.000000E-02   1.000000E-02   1.000000E-02   1.000000E-02   1.000000E-02   1.000000E-02   1.000000E-02   1.000000E-02   1.000000E-02   1.000000E-02   1.000000E-02   1.000000E-02   1.000000E-02   1.000000E-02
   1.000000E-02   1.000000E-02   1.000000E-02   1.000000E-02   1.000000E-02   1.000000E-02   1.000000E-02   1.000000E-02   1.000000E-02   1.000000E-02   1.000000E-02   1.000000E-02   1.000000E-02   1.000000E-02   1.000000E-02   1.000000E-02   1.000000E-02   1.000000E-02   1.000000E-02   1.000000E-02
   1.000000E-02   1.000000E-02   1.000000E-02   1.000000E-02   1.000000E-02   1.000000E-02   1.000000E-02   1.000000E-02   1.000000E-02   1.000000E-02   1.000000E-02   1.000000E-02   1.000000E-02   1.000000E-02   1.000000E-02   1.000000E-02   1.000000E-02   1.000000E-02   1.000000E-02   1.000000E-02
   1.000000E-02   1.000000E-02   1.000000E-02   1.000000E-02   1.000000E-02   1.000000E-02   1.000000E-02   1.000000E-02   1.000000E-02   1.000000E-02   1.000000E-02   1.000000E-02   1.000000E-02   1.000000E-02   1.000000E-02   1.000000E-02   1.000000E-02   1.000000E-02   1.000000E-02   1.000000E-02
   1.000000E-02   1.000000E-02   1.000000E-02   1.000000E-02   1.000000E-02   1.000000E-02   1.000000E-02   1.000000E-02   1.000000E-02   1.000000E-02   1.000000E-02   1.000000E-02   1.000000E-02   1.000000E-02   1.000000E-02   1.000000E-02   1.000000E-02   1.000000E-02   1.000000E-02   1.000000E-02
   1.000000E-02   1.000000E-02   1.000000E-02   1.000000E-02   1.000000E-02   1.000000E-02   1.000000E-02   1.000000E-02   1.000000E-02   1.000000E-02   1.000000E-02   1.000000E-02   1.000000E-02   1.000000E-02   1.000000E-02   1.000000E-02   1.000000E-02   1.000000E-02   1.000000E-02   1.000000E-02
   1.000000E-02   1.000000E-02   1.000000E-02   1.000000E-02   1.000000E-02   1.000000E-02   1.000000E-02   1.000000E-02   1.000000E-02   1.000000E-02   1.000000E-02   1.000000E-02   1.000000E-02   1.000000E-02   1.000000E-02   1.000000E-02   1.000000E-02   1.000000E-02   1.000000E-02   1.000000E-02
   1.000000E-02   1.000000E-02   1.000000E-02   1.000000E-02   1.000000E-02   1.000000E-02   1.000000E-02   1.000000E-02   1.000000E-02   1.000000E-02   1.000000E-02   1.000000E-02   1.000000E-02   1.000000E-02   1.000000E-02   1.000000E-02   1.000000E-02   1.000000E-02   1.000000E-02   1.000000E-02
   1.000000E-02   1.000000E-02   1.000000E-02   1.000000E-02   1.000000E-02   1.000000E-02   1.000000E-02   1.000000E-02   1.000000E-02   1.000000E-02   1.000000E-02   1.000000E-02   1.000000E-02   1.000000E-02   1.000000E-02   1.000000E-02   1.000000E-02   1.000000E-02   1.000000E-02   1.000000E-02
   1.000000E-02   1.000000E-02   1.000000E-02   1.000000E-02   1.000000E-02   1.000000E-02   1.000000E-02   1.000000E-02   1.000000E-02   1.000000E-02   1.000000E-02   1.000000E-02   1.000000E-02   1.000000E-02   1.000000E-02   1.000000E-02   1.000000E-02   1.000000E-02   1.000000E-02   1.000000E-02
CONSTANT    3.000000E-01                           #hk layer 2                    
CONSTANT    3.000000E-02                           #vka2                          
INTERNAL               1  (20E15.6) -1 #ss layer 2                    
   1.000000E-05   1.000000E-05   1.000000E-05   1.000000E-05   1.000000E-05   1.000000E-05   1.000000E-05   1.000000E-05   1.000000E-05   1.000000E-05   1.000000E-05   1.000000E-05   1.000000E-05   1.000000E-05   1.000000E-05   1.000000E-05   1.000000E-05   1.000000E-05   1.000000E-05   1.000000E-05
   1.000000E-05   1.000000E-05   1.000000E-05   1.000000E-05   1.000000E-05   1.000000E-05   1.000000E-05   1.000000E-05   1.000000E-05   1.000000E-05   1.000000E-05   1.000000E-05   1.000000E-05   1.000000E-05   1.000000E-05   1.000000E-05   1.000000E-05   1.000000E-05   1.000000E-05   1.000000E-05
   1.000000E-05   1.000000E-05   1.000000E-05   1.000000E-05   1.000000E-05   1.000000E-05   1.000000E-05   1.000000E-05   1.000000E-05   1.000000E-05   1.000000E-05   1.000000E-05   1.000000E-05   1.000000E-05   1.000000E-05   1.000000E-05   1.000000E-05   1.000000E-05   1.000000E-05   1.000000E-05
   1.000000E-05   1.000000E-05   1.000000E-05   1.000000E-05   1.000000E-05   1.000000E-05   1.000000E-05   1.000000E-05   1.000000E-05   1.000000E-05   1.000000E-05   1.000000E-05   1.000000E-05   1.000000E-05   1.000000E-05   1.000000E-05   1.000000E-05   1.000000E-05   1.000000E-05   1.000000E-05
   1.000000E-05   1.000000E-05   1.000000E-05   1.000000E-05   1.000000E-05   1.000000E-05   1.000000E-05   1.000000E-05   1.000000E-05   1.000000E-05   1.000000E-05   1.000000E-05   1.000000E-05   1.000000E-05   1.000000E-05   1.000000E-05   1.000000E-05   1.000000E-05   1.000000E-05   1.000000E-05
   1.000000E-05   1.000000E-05   1.000000E-05   1.000000E-05   1.000000E-05   1.000000E-05   1.000000E-05   1.000000E-05   1.000000E-05   1.000000E-05   1.000000E-05   1.000000E-05   1.000000E-05   1.000000E-05   1.000000E-05   1.000000E-05   1.000000E-05   1.000000E-05   1.000000E-05   1.000000E-05
   1.000000E-05   1.000000E-05   1.000000E-05   1.000000E-05   1.000000E-05   1.000000E-05   1.000000E-05   1.000000E-05   1.000000E-05   1.000000E-05   1.000000E-05   1.000000E-05   1.000000E-05   1.000000E-05   1.000000E-05   1.000000E-05   1.000000E-05   1.000000E-05   1.000000E-05   1.000000E-05
   1.000000E-05   1.000000E-05   1.000000E-05   1.000000E-05   1.000000E-05   1.000000E-05   1.000000E-05   1.000000E-05   1.000000E-05   1.000000E-05   1.000000E-05   1.000000E-05   1.000000E-05   1.000000E-05   1.000000E-05   1.000000E-05   1.000000E-05   1.000000E-05   1.000000E-05   1.000000E-05
   1.000000E-05   1.000000E-05   1.000000E-05   1.000000E-05   1.000000E-05   1.000000E-05   1.000000E-05   1.000000E-05   1.000000E-05   1.000000E-05   1.000000E-05   1.000000E-05   1.000000E-05   1.000000E-05   1.000000E-05   1.000000E-05   1.000000E-05   1.000000E-05   1.000000E-05   1.000000E-05
   1.000000E-05   1.000000E-05   1.000000E-05   1.000000E-05   1.000000E-05   1.000000E-05   1.000000E-05   1.000000E-05   1.000000E-05   1.000000E-05   1.000000E-05   1.000000E-05   1.000000E-05   1.000000E-05   1.000000E-05   1.000000E-05   1.000000E-05   1.000000E-05   1.000000E-05   1.000000E-05
   1.000000E-05   1.000000E-05   1.000000E-05   1.000000E-05   1.000000E-05   1.000000E-05   1.000000E-05   1.000000E-05   1.000000E-05   1.000000E-05   1.000000E-05   1.000000E-05   1.000000E-05   1.000000E-05   1.000000E-05   1.000000E-05   1.000000E-05   1.000000E-05   1.000000E-05   1.000000E-05
   1.000000E-05   1.000000E-05   1.000000E-05   1.000000E-05   1.000000E-05   1.000000E-05   1.000000E-05   1.000000E-05   1.000000E-05   1.000000E-05   1.000000E-05   1.000000E-05   1.000000E-05   1.000000E-05   1.000000E-05   1.000000E-05   1.000000E-05   1.000000E-05   1.000000E-05   1.000000E-05
   1.000000E-05   1.000000E-05   1.000000E-05   1.000000E-05   1.000000E-05   1.000000E-05   1.000000E-05   1.000000E-05   1.000000E-05   1.000000E-05   1.000000E-05   1.000000E-05   1.000000E-05   1.000000E-05   1.000000E-05   1.000000E-05   1.000000E-05   1.000000E-05   1.000000E-05   1.000000E-05
   1.000000E-05   1.000000E-05   1.000000E-05   1.000000E-05   1.000000E-05   1.000000E-05   1.000000E-05   1.000000E-05   1.000000E-05   1.000000E-05   1.000000E-05   1.000000E-05   1.000000E-05   1.000000E-05   1.000000E-05   1.000000E-05   1.000000E-05   1.000000E-05   1.000000E-05   1.000000E-05
   1.000000E-05   1.000000E-05   1.000000E-05   1.000000E-05   1.000000E-05   1.000000E-05   1.000000E-05   1.000000E-05   1.000000E-05   1.000000E-05   1.000000E-05   1.000000E-05   1.000000E-05   1.000000E-05   1.000000E-05   1.000000E-05   1.000000E-05   1.000000E-05   1.000000E-05   1.000000E-05
   1.000000E-05   1.000000E-05   1.000000E-05   1.000000E-05   1.000000E-05   1.000000E-05   1.000000E-05   1.000000E-05   1.000000E-05   1.000000E-05   1.000000E-05   1.000000E-05   1.000000E-05   1.000000E-05   1.000000E-05   1.000000E-05   1.000000E-05   1.000000E-05   1.000000E-05   1.000000E-05