# NWT package for  MODFLOW-NWT, generated by Flopy.
 1.000e-02 1.000e+00       100 1.000e-05         1         0         0   COMPLEX
