# WEL package for  MODFLOW-NWT, generated by Flopy.
         6        50 
         6         0 # stress period 1
         open/close ./WEL_0000.dat
         6         0 # stress period 2
         open/close ./WEL_0001.dat
         6         0 # stress period 3
         open/close ./WEL_0002.dat
         6         0 # stress period 4
         open/close ./WEL_0003.dat
         6         0 # stress period 5
         open/close ./WEL_0004.dat
         6         0 # stress period 6
         open/close ./WEL_0005.dat
         6         0 # stress period 7
         open/close ./WEL_0006.dat
         6         0 # stress period 8
         open/close ./WEL_0007.dat
         6         0 # stress period 9
         open/close ./WEL_0008.dat
         6         0 # stress period 10
         open/close ./WEL_0009.dat
         6         0 # stress period 11
         open/close ./WEL_0010.dat
         6         0 # stress period 12
         open/close ./WEL_0011.dat
         6         0 # stress period 13
         open/close ./WEL_0012.dat
         6         0 # stress period 14
         open/close ./WEL_0013.dat
         6         0 # stress period 15
         open/close ./WEL_0014.dat
         6         0 # stress period 16
         open/close ./WEL_0015.dat
         6         0 # stress period 17
         open/close ./WEL_0016.dat
         6         0 # stress period 18
         open/close ./WEL_0017.dat
         6         0 # stress period 19
         open/close ./WEL_0018.dat
         6         0 # stress period 20
         open/close ./WEL_0019.dat
         6         0 # stress period 21
         open/close ./WEL_0020.dat
         6         0 # stress period 22
         open/close ./WEL_0021.dat
         6         0 # stress period 23
         open/close ./WEL_0022.dat
         6         0 # stress period 24
         open/close ./WEL_0023.dat
         6         0 # stress period 25
         open/close ./WEL_0024.dat
         6         0 # stress period 26
         open/close ./WEL_0025.dat
         6         0 # stress period 27
         open/close ./WEL_0026.dat
         6         0 # stress period 28
         open/close ./WEL_0027.dat
         6         0 # stress period 29
         open/close ./WEL_0028.dat
         6         0 # stress period 30
         open/close ./WEL_0029.dat
         6         0 # stress period 31
         open/close ./WEL_0030.dat
         6         0 # stress period 32
         open/close ./WEL_0031.dat
         6         0 # stress period 33
         open/close ./WEL_0032.dat
         6         0 # stress period 34
         open/close ./WEL_0033.dat
         6         0 # stress period 35
         open/close ./WEL_0034.dat
         6         0 # stress period 36
         open/close ./WEL_0035.dat
         6         0 # stress period 37
         open/close ./WEL_0036.dat
         6         0 # stress period 38
         open/close ./WEL_0037.dat
         6         0 # stress period 39
         open/close ./WEL_0038.dat
         6         0 # stress period 40
         open/close ./WEL_0039.dat
         6         0 # stress period 41
         open/close ./WEL_0040.dat
         6         0 # stress period 42
         open/close ./WEL_0041.dat
         6         0 # stress period 43
         open/close ./WEL_0042.dat
         6         0 # stress period 44
         open/close ./WEL_0043.dat
         6         0 # stress period 45
         open/close ./WEL_0044.dat
         6         0 # stress period 46
         open/close ./WEL_0045.dat
         6         0 # stress period 47
         open/close ./WEL_0046.dat
         6         0 # stress period 48
         open/close ./WEL_0047.dat
         6         0 # stress period 49
         open/close ./WEL_0048.dat
         6         0 # stress period 50
         open/close ./WEL_0049.dat
         6         0 # stress period 51
         open/close ./WEL_0050.dat
         6         0 # stress period 52
         open/close ./WEL_0051.dat
         6         0 # stress period 53
         open/close ./WEL_0052.dat
         6         0 # stress period 54
         open/close ./WEL_0053.dat
         6         0 # stress period 55
         open/close ./WEL_0054.dat
         6         0 # stress period 56
         open/close ./WEL_0055.dat
         6         0 # stress period 57
         open/close ./WEL_0056.dat
         6         0 # stress period 58
         open/close ./WEL_0057.dat
         6         0 # stress period 59
         open/close ./WEL_0058.dat
         6         0 # stress period 60
         open/close ./WEL_0059.dat
         6         0 # stress period 61
         open/close ./WEL_0060.dat
         6         0 # stress period 62
         open/close ./WEL_0061.dat
         6         0 # stress period 63
         open/close ./WEL_0062.dat
         6         0 # stress period 64
         open/close ./WEL_0063.dat
         6         0 # stress period 65
         open/close ./WEL_0064.dat
         6         0 # stress period 66
         open/close ./WEL_0065.dat
         6         0 # stress period 67
         open/close ./WEL_0066.dat
         6         0 # stress period 68
         open/close ./WEL_0067.dat
         6         0 # stress period 69
         open/close ./WEL_0068.dat
         6         0 # stress period 70
         open/close ./WEL_0069.dat
         6         0 # stress period 71
         open/close ./WEL_0070.dat
         6         0 # stress period 72
         open/close ./WEL_0071.dat
         6         0 # stress period 73
         open/close ./WEL_0072.dat
         6         0 # stress period 74
         open/close ./WEL_0073.dat
         6         0 # stress period 75
         open/close ./WEL_0074.dat
         6         0 # stress period 76
         open/close ./WEL_0075.dat
         6         0 # stress period 77
         open/close ./WEL_0076.dat
         6         0 # stress period 78
         open/close ./WEL_0077.dat
         6         0 # stress period 79
         open/close ./WEL_0078.dat
         6         0 # stress period 80
         open/close ./WEL_0079.dat
         6         0 # stress period 81
         open/close ./WEL_0080.dat
         6         0 # stress period 82
         open/close ./WEL_0081.dat
         6         0 # stress period 83
         open/close ./WEL_0082.dat
         6         0 # stress period 84
         open/close ./WEL_0083.dat
         6         0 # stress period 85
         open/close ./WEL_0084.dat
         6         0 # stress period 86
         open/close ./WEL_0085.dat
         6         0 # stress period 87
         open/close ./WEL_0086.dat
         6         0 # stress period 88
         open/close ./WEL_0087.dat
         6         0 # stress period 89
         open/close ./WEL_0088.dat
         6         0 # stress period 90
         open/close ./WEL_0089.dat
         6         0 # stress period 91
         open/close ./WEL_0090.dat
         6         0 # stress period 92
         open/close ./WEL_0091.dat
         6         0 # stress period 93
         open/close ./WEL_0092.dat
         6         0 # stress period 94
         open/close ./WEL_0093.dat
         6         0 # stress period 95
         open/close ./WEL_0094.dat
         6         0 # stress period 96
         open/close ./WEL_0095.dat
         6         0 # stress period 97
         open/close ./WEL_0096.dat
         6         0 # stress period 98
         open/close ./WEL_0097.dat
         6         0 # stress period 99
         open/close ./WEL_0098.dat
         6         0 # stress period 100
         open/close ./WEL_0099.dat
         6         0 # stress period 101
         open/close ./WEL_0100.dat
         6         0 # stress period 102
         open/close ./WEL_0101.dat
         6         0 # stress period 103
         open/close ./WEL_0102.dat
         6         0 # stress period 104
         open/close ./WEL_0103.dat
         6         0 # stress period 105
         open/close ./WEL_0104.dat
         6         0 # stress period 106
         open/close ./WEL_0105.dat
         6         0 # stress period 107
         open/close ./WEL_0106.dat
         6         0 # stress period 108
         open/close ./WEL_0107.dat
         6         0 # stress period 109
         open/close ./WEL_0108.dat
         6         0 # stress period 110
         open/close ./WEL_0109.dat
         6         0 # stress period 111
         open/close ./WEL_0110.dat
         6         0 # stress period 112
         open/close ./WEL_0111.dat
         6         0 # stress period 113
         open/close ./WEL_0112.dat
         6         0 # stress period 114
         open/close ./WEL_0113.dat
         6         0 # stress period 115
         open/close ./WEL_0114.dat
         6         0 # stress period 116
         open/close ./WEL_0115.dat
         6         0 # stress period 117
         open/close ./WEL_0116.dat
         6         0 # stress period 118
         open/close ./WEL_0117.dat
         6         0 # stress period 119
         open/close ./WEL_0118.dat
         6         0 # stress period 120
         open/close ./WEL_0119.dat
         6         0 # stress period 121
         open/close ./WEL_0120.dat
         6         0 # stress period 122
         open/close ./WEL_0121.dat
         6         0 # stress period 123
         open/close ./WEL_0122.dat
         6         0 # stress period 124
         open/close ./WEL_0123.dat
         6         0 # stress period 125
         open/close ./WEL_0124.dat
         6         0 # stress period 126
         open/close ./WEL_0125.dat
         6         0 # stress period 127
         open/close ./WEL_0126.dat
         6         0 # stress period 128
         open/close ./WEL_0127.dat
         6         0 # stress period 129
         open/close ./WEL_0128.dat
         6         0 # stress period 130
         open/close ./WEL_0129.dat
         6         0 # stress period 131
         open/close ./WEL_0130.dat
         6         0 # stress period 132
         open/close ./WEL_0131.dat
         6         0 # stress period 133
         open/close ./WEL_0132.dat
         6         0 # stress period 134
         open/close ./WEL_0133.dat
         6         0 # stress period 135
         open/close ./WEL_0134.dat
         6         0 # stress period 136
         open/close ./WEL_0135.dat
         6         0 # stress period 137
         open/close ./WEL_0136.dat
         6         0 # stress period 138
         open/close ./WEL_0137.dat
         6         0 # stress period 139
         open/close ./WEL_0138.dat
         6         0 # stress period 140
         open/close ./WEL_0139.dat
         6         0 # stress period 141
         open/close ./WEL_0140.dat
         6         0 # stress period 142
         open/close ./WEL_0141.dat
         6         0 # stress period 143
         open/close ./WEL_0142.dat
         6         0 # stress period 144
         open/close ./WEL_0143.dat
         6         0 # stress period 145
         open/close ./WEL_0144.dat
         6         0 # stress period 146
         open/close ./WEL_0145.dat
         6         0 # stress period 147
         open/close ./WEL_0146.dat
         6         0 # stress period 148
         open/close ./WEL_0147.dat
         6         0 # stress period 149
         open/close ./WEL_0148.dat
         6         0 # stress period 150
         open/close ./WEL_0149.dat
         6         0 # stress period 151
         open/close ./WEL_0150.dat
         6         0 # stress period 152
         open/close ./WEL_0151.dat
         6         0 # stress period 153
         open/close ./WEL_0152.dat
         6         0 # stress period 154
         open/close ./WEL_0153.dat
         6         0 # stress period 155
         open/close ./WEL_0154.dat
         6         0 # stress period 156
         open/close ./WEL_0155.dat
         6         0 # stress period 157
         open/close ./WEL_0156.dat
         6         0 # stress period 158
         open/close ./WEL_0157.dat
         6         0 # stress period 159
         open/close ./WEL_0158.dat
         6         0 # stress period 160
         open/close ./WEL_0159.dat
         6         0 # stress period 161
         open/close ./WEL_0160.dat
         6         0 # stress period 162
         open/close ./WEL_0161.dat
         6         0 # stress period 163
         open/close ./WEL_0162.dat
         6         0 # stress period 164
         open/close ./WEL_0163.dat
         6         0 # stress period 165
         open/close ./WEL_0164.dat
         6         0 # stress period 166
         open/close ./WEL_0165.dat
         6         0 # stress period 167
         open/close ./WEL_0166.dat
         6         0 # stress period 168
         open/close ./WEL_0167.dat
         6         0 # stress period 169
         open/close ./WEL_0168.dat
         6         0 # stress period 170
         open/close ./WEL_0169.dat
         6         0 # stress period 171
         open/close ./WEL_0170.dat
         6         0 # stress period 172
         open/close ./WEL_0171.dat
         6         0 # stress period 173
         open/close ./WEL_0172.dat
         6         0 # stress period 174
         open/close ./WEL_0173.dat
         6         0 # stress period 175
         open/close ./WEL_0174.dat
         6         0 # stress period 176
         open/close ./WEL_0175.dat
         6         0 # stress period 177
         open/close ./WEL_0176.dat
         6         0 # stress period 178
         open/close ./WEL_0177.dat
         6         0 # stress period 179
         open/close ./WEL_0178.dat
         6         0 # stress period 180
         open/close ./WEL_0179.dat
         6         0 # stress period 181
         open/close ./WEL_0180.dat
         6         0 # stress period 182
         open/close ./WEL_0181.dat
         6         0 # stress period 183
         open/close ./WEL_0182.dat
         6         0 # stress period 184
         open/close ./WEL_0183.dat
         6         0 # stress period 185
         open/close ./WEL_0184.dat
         6         0 # stress period 186
         open/close ./WEL_0185.dat
         6         0 # stress period 187
         open/close ./WEL_0186.dat
         6         0 # stress period 188
         open/close ./WEL_0187.dat
         6         0 # stress period 189
         open/close ./WEL_0188.dat
         6         0 # stress period 190
         open/close ./WEL_0189.dat
         6         0 # stress period 191
         open/close ./WEL_0190.dat
         6         0 # stress period 192
         open/close ./WEL_0191.dat
         6         0 # stress period 193
         open/close ./WEL_0192.dat
         6         0 # stress period 194
         open/close ./WEL_0193.dat
         6         0 # stress period 195
         open/close ./WEL_0194.dat
         6         0 # stress period 196
         open/close ./WEL_0195.dat
         6         0 # stress period 197
         open/close ./WEL_0196.dat
         6         0 # stress period 198
         open/close ./WEL_0197.dat
         6         0 # stress period 199
         open/close ./WEL_0198.dat
         6         0 # stress period 200
         open/close ./WEL_0199.dat
         6         0 # stress period 201
         open/close ./WEL_0200.dat
         6         0 # stress period 202
         open/close ./WEL_0201.dat
         6         0 # stress period 203
         open/close ./WEL_0202.dat
         6         0 # stress period 204
         open/close ./WEL_0203.dat
         6         0 # stress period 205
         open/close ./WEL_0204.dat
         6         0 # stress period 206
         open/close ./WEL_0205.dat
         6         0 # stress period 207
         open/close ./WEL_0206.dat
         6         0 # stress period 208
         open/close ./WEL_0207.dat
         6         0 # stress period 209
         open/close ./WEL_0208.dat
         6         0 # stress period 210
         open/close ./WEL_0209.dat
         6         0 # stress period 211
         open/close ./WEL_0210.dat
         6         0 # stress period 212
         open/close ./WEL_0211.dat
         6         0 # stress period 213
         open/close ./WEL_0212.dat
         6         0 # stress period 214
         open/close ./WEL_0213.dat
         6         0 # stress period 215
         open/close ./WEL_0214.dat
         6         0 # stress period 216
         open/close ./WEL_0215.dat
         6         0 # stress period 217
         open/close ./WEL_0216.dat
         6         0 # stress period 218
         open/close ./WEL_0217.dat
         6         0 # stress period 219
         open/close ./WEL_0218.dat
         6         0 # stress period 220
         open/close ./WEL_0219.dat
         6         0 # stress period 221
         open/close ./WEL_0220.dat
         6         0 # stress period 222
         open/close ./WEL_0221.dat
         6         0 # stress period 223
         open/close ./WEL_0222.dat
         6         0 # stress period 224
         open/close ./WEL_0223.dat
         6         0 # stress period 225
         open/close ./WEL_0224.dat
         6         0 # stress period 226
         open/close ./WEL_0225.dat
         6         0 # stress period 227
         open/close ./WEL_0226.dat
         6         0 # stress period 228
         open/close ./WEL_0227.dat
         6         0 # stress period 229
         open/close ./WEL_0228.dat
         6         0 # stress period 230
         open/close ./WEL_0229.dat
         6         0 # stress period 231
         open/close ./WEL_0230.dat
         6         0 # stress period 232
         open/close ./WEL_0231.dat
         6         0 # stress period 233
         open/close ./WEL_0232.dat
         6         0 # stress period 234
         open/close ./WEL_0233.dat
         6         0 # stress period 235
         open/close ./WEL_0234.dat
         6         0 # stress period 236
         open/close ./WEL_0235.dat
         6         0 # stress period 237
         open/close ./WEL_0236.dat
         6         0 # stress period 238
         open/close ./WEL_0237.dat
         6         0 # stress period 239
         open/close ./WEL_0238.dat
         6         0 # stress period 240
         open/close ./WEL_0239.dat
         6         0 # stress period 241
         open/close ./WEL_0240.dat
         6         0 # stress period 242
         open/close ./WEL_0241.dat
         6         0 # stress period 243
         open/close ./WEL_0242.dat
         6         0 # stress period 244
         open/close ./WEL_0243.dat
         6         0 # stress period 245
         open/close ./WEL_0244.dat
         6         0 # stress period 246
         open/close ./WEL_0245.dat
         6         0 # stress period 247
         open/close ./WEL_0246.dat
         6         0 # stress period 248
         open/close ./WEL_0247.dat
         6         0 # stress period 249
         open/close ./WEL_0248.dat
         6         0 # stress period 250
         open/close ./WEL_0249.dat
         6         0 # stress period 251
         open/close ./WEL_0250.dat
         6         0 # stress period 252
         open/close ./WEL_0251.dat
         6         0 # stress period 253
         open/close ./WEL_0252.dat
         6         0 # stress period 254
         open/close ./WEL_0253.dat
         6         0 # stress period 255
         open/close ./WEL_0254.dat
         6         0 # stress period 256
         open/close ./WEL_0255.dat
         6         0 # stress period 257
         open/close ./WEL_0256.dat
         6         0 # stress period 258
         open/close ./WEL_0257.dat
         6         0 # stress period 259
         open/close ./WEL_0258.dat
         6         0 # stress period 260
         open/close ./WEL_0259.dat
         6         0 # stress period 261
         open/close ./WEL_0260.dat
         6         0 # stress period 262
         open/close ./WEL_0261.dat
         6         0 # stress period 263
         open/close ./WEL_0262.dat
         6         0 # stress period 264
         open/close ./WEL_0263.dat
         6         0 # stress period 265
         open/close ./WEL_0264.dat
         6         0 # stress period 266
         open/close ./WEL_0265.dat
         6         0 # stress period 267
         open/close ./WEL_0266.dat
         6         0 # stress period 268
         open/close ./WEL_0267.dat
         6         0 # stress period 269
         open/close ./WEL_0268.dat
         6         0 # stress period 270
         open/close ./WEL_0269.dat
         6         0 # stress period 271
         open/close ./WEL_0270.dat
         6         0 # stress period 272
         open/close ./WEL_0271.dat
         6         0 # stress period 273
         open/close ./WEL_0272.dat
         6         0 # stress period 274
         open/close ./WEL_0273.dat
         6         0 # stress period 275
         open/close ./WEL_0274.dat
         6         0 # stress period 276
         open/close ./WEL_0275.dat
         6         0 # stress period 277
         open/close ./WEL_0276.dat
         6         0 # stress period 278
         open/close ./WEL_0277.dat
         6         0 # stress period 279
         open/close ./WEL_0278.dat
         6         0 # stress period 280
         open/close ./WEL_0279.dat
         6         0 # stress period 281
         open/close ./WEL_0280.dat
         6         0 # stress period 282
         open/close ./WEL_0281.dat
         6         0 # stress period 283
         open/close ./WEL_0282.dat
         6         0 # stress period 284
         open/close ./WEL_0283.dat
         6         0 # stress period 285
         open/close ./WEL_0284.dat
         6         0 # stress period 286
         open/close ./WEL_0285.dat
         6         0 # stress period 287
         open/close ./WEL_0286.dat
         6         0 # stress period 288
         open/close ./WEL_0287.dat
         6         0 # stress period 289
         open/close ./WEL_0288.dat
         6         0 # stress period 290
         open/close ./WEL_0289.dat
         6         0 # stress period 291
         open/close ./WEL_0290.dat
         6         0 # stress period 292
         open/close ./WEL_0291.dat
         6         0 # stress period 293
         open/close ./WEL_0292.dat
         6         0 # stress period 294
         open/close ./WEL_0293.dat
         6         0 # stress period 295
         open/close ./WEL_0294.dat
         6         0 # stress period 296
         open/close ./WEL_0295.dat
         6         0 # stress period 297
         open/close ./WEL_0296.dat
         6         0 # stress period 298
         open/close ./WEL_0297.dat
         6         0 # stress period 299
         open/close ./WEL_0298.dat
         6         0 # stress period 300
         open/close ./WEL_0299.dat
         6         0 # stress period 301
         open/close ./WEL_0300.dat
         6         0 # stress period 302
         open/close ./WEL_0301.dat
         6         0 # stress period 303
         open/close ./WEL_0302.dat
         6         0 # stress period 304
         open/close ./WEL_0303.dat
         6         0 # stress period 305
         open/close ./WEL_0304.dat
         6         0 # stress period 306
         open/close ./WEL_0305.dat
         6         0 # stress period 307
         open/close ./WEL_0306.dat
         6         0 # stress period 308
         open/close ./WEL_0307.dat
         6         0 # stress period 309
         open/close ./WEL_0308.dat
         6         0 # stress period 310
         open/close ./WEL_0309.dat
         6         0 # stress period 311
         open/close ./WEL_0310.dat
         6         0 # stress period 312
         open/close ./WEL_0311.dat
         6         0 # stress period 313
         open/close ./WEL_0312.dat
         6         0 # stress period 314
         open/close ./WEL_0313.dat
         6         0 # stress period 315
         open/close ./WEL_0314.dat
         6         0 # stress period 316
         open/close ./WEL_0315.dat
         6         0 # stress period 317
         open/close ./WEL_0316.dat
         6         0 # stress period 318
         open/close ./WEL_0317.dat
         6         0 # stress period 319
         open/close ./WEL_0318.dat
         6         0 # stress period 320
         open/close ./WEL_0319.dat
         6         0 # stress period 321
         open/close ./WEL_0320.dat
         6         0 # stress period 322
         open/close ./WEL_0321.dat
         6         0 # stress period 323
         open/close ./WEL_0322.dat
         6         0 # stress period 324
         open/close ./WEL_0323.dat
         6         0 # stress period 325
         open/close ./WEL_0324.dat
         6         0 # stress period 326
         open/close ./WEL_0325.dat
         6         0 # stress period 327
         open/close ./WEL_0326.dat
         6         0 # stress period 328
         open/close ./WEL_0327.dat
         6         0 # stress period 329
         open/close ./WEL_0328.dat
         6         0 # stress period 330
         open/close ./WEL_0329.dat
         6         0 # stress period 331
         open/close ./WEL_0330.dat
         6         0 # stress period 332
         open/close ./WEL_0331.dat
         6         0 # stress period 333
         open/close ./WEL_0332.dat
         6         0 # stress period 334
         open/close ./WEL_0333.dat
         6         0 # stress period 335
         open/close ./WEL_0334.dat
         6         0 # stress period 336
         open/close ./WEL_0335.dat
         6         0 # stress period 337
         open/close ./WEL_0336.dat
         6         0 # stress period 338
         open/close ./WEL_0337.dat
         6         0 # stress period 339
         open/close ./WEL_0338.dat
         6         0 # stress period 340
         open/close ./WEL_0339.dat
         6         0 # stress period 341
         open/close ./WEL_0340.dat
         6         0 # stress period 342
         open/close ./WEL_0341.dat
         6         0 # stress period 343
         open/close ./WEL_0342.dat
         6         0 # stress period 344
         open/close ./WEL_0343.dat
         6         0 # stress period 345
         open/close ./WEL_0344.dat
         6         0 # stress period 346
         open/close ./WEL_0345.dat
         6         0 # stress period 347
         open/close ./WEL_0346.dat
         6         0 # stress period 348
         open/close ./WEL_0347.dat
         6         0 # stress period 349
         open/close ./WEL_0348.dat
         6         0 # stress period 350
         open/close ./WEL_0349.dat
         6         0 # stress period 351
         open/close ./WEL_0350.dat
         6         0 # stress period 352
         open/close ./WEL_0351.dat
         6         0 # stress period 353
         open/close ./WEL_0352.dat
         6         0 # stress period 354
         open/close ./WEL_0353.dat
         6         0 # stress period 355
         open/close ./WEL_0354.dat
         6         0 # stress period 356
         open/close ./WEL_0355.dat
         6         0 # stress period 357
         open/close ./WEL_0356.dat
         6         0 # stress period 358
         open/close ./WEL_0357.dat
         6         0 # stress period 359
         open/close ./WEL_0358.dat
         6         0 # stress period 360
         open/close ./WEL_0359.dat
         6         0 # stress period 361
         open/close ./WEL_0360.dat
         6         0 # stress period 362
         open/close ./WEL_0361.dat
         6         0 # stress period 363
         open/close ./WEL_0362.dat
         6         0 # stress period 364
         open/close ./WEL_0363.dat
         6         0 # stress period 365
         open/close ./WEL_0364.dat
         6         0 # stress period 366
         open/close ./WEL_0365.dat
         6         0 # stress period 367
         open/close ./WEL_0366.dat
         6         0 # stress period 368
         open/close ./WEL_0367.dat
         6         0 # stress period 369
         open/close ./WEL_0368.dat
         6         0 # stress period 370
         open/close ./WEL_0369.dat
         6         0 # stress period 371
         open/close ./WEL_0370.dat
         6         0 # stress period 372
         open/close ./WEL_0371.dat
         6         0 # stress period 373
         open/close ./WEL_0372.dat
         6         0 # stress period 374
         open/close ./WEL_0373.dat
         6         0 # stress period 375
         open/close ./WEL_0374.dat
         6         0 # stress period 376
         open/close ./WEL_0375.dat
         6         0 # stress period 377
         open/close ./WEL_0376.dat
         6         0 # stress period 378
         open/close ./WEL_0377.dat
         6         0 # stress period 379
         open/close ./WEL_0378.dat
         6         0 # stress period 380
         open/close ./WEL_0379.dat
         6         0 # stress period 381
         open/close ./WEL_0380.dat
         6         0 # stress period 382
         open/close ./WEL_0381.dat
         6         0 # stress period 383
         open/close ./WEL_0382.dat
         6         0 # stress period 384
         open/close ./WEL_0383.dat
         6         0 # stress period 385
         open/close ./WEL_0384.dat
         6         0 # stress period 386
         open/close ./WEL_0385.dat
         6         0 # stress period 387
         open/close ./WEL_0386.dat
         6         0 # stress period 388
         open/close ./WEL_0387.dat
         6         0 # stress period 389
         open/close ./WEL_0388.dat
         6         0 # stress period 390
         open/close ./WEL_0389.dat
         6         0 # stress period 391
         open/close ./WEL_0390.dat
         6         0 # stress period 392
         open/close ./WEL_0391.dat
         6         0 # stress period 393
         open/close ./WEL_0392.dat
         6         0 # stress period 394
         open/close ./WEL_0393.dat
         6         0 # stress period 395
         open/close ./WEL_0394.dat