pcf
* control data
             restart          estimation
     11914      7272        77         0        19         0
        77         6              single               point         1         0         0          noobsreref
   2.000000E+01  -3.000000E+00   3.000000E-01   1.000000E-02        -7       999          lamforgive        noderforgive
   1.000000E+01   1.000000E+01   1.000000E-03         0         0
   1.000000E-01         1   1.100000E+00               noaui          nosenreuse        noboundscale
        -1   1.000000E-02         3         3   1.000000E-02         3   0.000000E+00         1  -1.000000E+00
         0         0         0         0             jcosave          verboserec          jcosaveitn          reisaveitn          parsaveitn        noparsaverun
* singular value decomposition
         1
  10000000    1.000000E-06
1
* parameter groups
 gr_prsity3              relative              1.0000000000E-02       0.0  switch                2.0000000000E+00       parabolic              1.0000000000E-05       5.0000000000E-01       smaller              
 gr_ss4                  relative              1.0000000000E-02       0.0  switch                2.0000000000E+00       parabolic              1.0000000000E-05       5.0000000000E-01       smaller              
 gr_vka3                 relative              1.0000000000E-02       0.0  switch                2.0000000000E+00       parabolic              1.0000000000E-05       5.0000000000E-01       smaller              
 gr_hk4                  relative              1.0000000000E-02       0.0  switch                2.0000000000E+00       parabolic              1.0000000000E-05       5.0000000000E-01       smaller              
 gr_hk5                  relative              1.0000000000E-02       0.0  switch                2.0000000000E+00       parabolic              1.0000000000E-05       5.0000000000E-01       smaller              
 gr_ss3                  relative              1.0000000000E-02       0.0  switch                2.0000000000E+00       parabolic              1.0000000000E-05       5.0000000000E-01       smaller              
 gr_prsity4              relative              1.0000000000E-02       0.0  switch                2.0000000000E+00       parabolic              1.0000000000E-05       5.0000000000E-01       smaller              
 gr_vka5                 relative              1.0000000000E-02       0.0  switch                2.0000000000E+00       parabolic              1.0000000000E-05       5.0000000000E-01       smaller              
 gr_prsity5              relative              1.0000000000E-02       0.0  switch                2.0000000000E+00       parabolic              1.0000000000E-05       5.0000000000E-01       smaller              
 gr_ss5                  relative              1.0000000000E-02       0.0  switch                2.0000000000E+00       parabolic              1.0000000000E-05       5.0000000000E-01       smaller              
 gr_sy5                  relative              1.0000000000E-02       0.0  switch                2.0000000000E+00       parabolic              1.0000000000E-05       5.0000000000E-01       smaller              
 gr_vka4                 relative              1.0000000000E-02       0.0  switch                2.0000000000E+00       parabolic              1.0000000000E-05       5.0000000000E-01       smaller              
 gr_hk3                  relative              1.0000000000E-02       0.0  switch                2.0000000000E+00       parabolic              1.0000000000E-05       5.0000000000E-01       smaller              
 gr_rech1                relative              1.0000000000E-02       0.0  switch                2.0000000000E+00       parabolic              1.0000000000E-05       5.0000000000E-01       smaller              
 gr_sy4                  relative              1.0000000000E-02       0.0  switch                2.0000000000E+00       parabolic              1.0000000000E-05       5.0000000000E-01       smaller              
 gr_sy3                  relative              1.0000000000E-02       0.0  switch                2.0000000000E+00       parabolic              1.0000000000E-05       5.0000000000E-01       smaller              
 strk                    relative              1.0000000000E-02       0.0  switch                2.0000000000E+00       parabolic              1.0000000000E-05       5.0000000000E-01       smaller              
 pp_hk0                  relative              1.0000000000E-02       0.0  switch                2.0000000000E+00       parabolic              1.0000000000E-05       5.0000000000E-01       smaller              
 pp_sy2                  relative              1.0000000000E-02       0.0  switch                2.0000000000E+00       parabolic              1.0000000000E-05       5.0000000000E-01       smaller              
 pp_prsity0              relative              1.0000000000E-02       0.0  switch                2.0000000000E+00       parabolic              1.0000000000E-05       5.0000000000E-01       smaller              
 pp_prsity2              relative              1.0000000000E-02       0.0  switch                2.0000000000E+00       parabolic              1.0000000000E-05       5.0000000000E-01       smaller              
 pp_ss2                  relative              1.0000000000E-02       0.0  switch                2.0000000000E+00       parabolic              1.0000000000E-05       5.0000000000E-01       smaller              
 pp_rech0                relative              1.0000000000E-02       0.0  switch                2.0000000000E+00       parabolic              1.0000000000E-05       5.0000000000E-01       smaller              
 pp_vka0                 relative              1.0000000000E-02       0.0  switch                2.0000000000E+00       parabolic              1.0000000000E-05       5.0000000000E-01       smaller              
 pp_vka2                 relative              1.0000000000E-02       0.0  switch                2.0000000000E+00       parabolic              1.0000000000E-05       5.0000000000E-01       smaller              
 pp_ss0                  relative              1.0000000000E-02       0.0  switch                2.0000000000E+00       parabolic              1.0000000000E-05       5.0000000000E-01       smaller              
 pp_hk2                  relative              1.0000000000E-02       0.0  switch                2.0000000000E+00       parabolic              1.0000000000E-05       5.0000000000E-01       smaller              
 pp_vka1                 relative              1.0000000000E-02       0.0  switch                2.0000000000E+00       parabolic              1.0000000000E-05       5.0000000000E-01       smaller              
 pp_prsity1              relative              1.0000000000E-02       0.0  switch                2.0000000000E+00       parabolic              1.0000000000E-05       5.0000000000E-01       smaller              
 pp_sy1                  relative              1.0000000000E-02       0.0  switch                2.0000000000E+00       parabolic              1.0000000000E-05       5.0000000000E-01       smaller              
 pp_sy0                  relative              1.0000000000E-02       0.0  switch                2.0000000000E+00       parabolic              1.0000000000E-05       5.0000000000E-01       smaller              
 pp_hk1                  relative              1.0000000000E-02       0.0  switch                2.0000000000E+00       parabolic              1.0000000000E-05       5.0000000000E-01       smaller              
 pp_ss1                  relative              1.0000000000E-02       0.0  switch                2.0000000000E+00       parabolic              1.0000000000E-05       5.0000000000E-01       smaller              
 welflux                 relative              1.0000000000E-02       0.0  switch                2.0000000000E+00       parabolic              1.0000000000E-05       5.0000000000E-01       smaller              
 drncond_k00             relative              1.0000000000E-02       0.0  switch                2.0000000000E+00       parabolic              1.0000000000E-05       5.0000000000E-01       smaller              
 welflux_k02             relative              1.0000000000E-02       0.0  switch                2.0000000000E+00       parabolic              1.0000000000E-05       5.0000000000E-01       smaller              
 cn_rech3                relative              1.0000000000E-02       0.0  switch                2.0000000000E+00       parabolic              1.0000000000E-05       5.0000000000E-01       smaller              
 cn_rech18               relative              1.0000000000E-02       0.0  switch                2.0000000000E+00       parabolic              1.0000000000E-05       5.0000000000E-01       smaller              
 cn_rech24               relative              1.0000000000E-02       0.0  switch                2.0000000000E+00       parabolic              1.0000000000E-05       5.0000000000E-01       smaller              
 cn_ss7                  relative              1.0000000000E-02       0.0  switch                2.0000000000E+00       parabolic              1.0000000000E-05       5.0000000000E-01       smaller              
 cn_rech13               relative              1.0000000000E-02       0.0  switch                2.0000000000E+00       parabolic              1.0000000000E-05       5.0000000000E-01       smaller              
 cn_ss8                  relative              1.0000000000E-02       0.0  switch                2.0000000000E+00       parabolic              1.0000000000E-05       5.0000000000E-01       smaller              
 cn_vka8                 relative              1.0000000000E-02       0.0  switch                2.0000000000E+00       parabolic              1.0000000000E-05       5.0000000000E-01       smaller              
 cn_rech17               relative              1.0000000000E-02       0.0  switch                2.0000000000E+00       parabolic              1.0000000000E-05       5.0000000000E-01       smaller              
 cn_prsity6              relative              1.0000000000E-02       0.0  switch                2.0000000000E+00       parabolic              1.0000000000E-05       5.0000000000E-01       smaller              
 cn_rech7                relative              1.0000000000E-02       0.0  switch                2.0000000000E+00       parabolic              1.0000000000E-05       5.0000000000E-01       smaller              
 cn_rech11               relative              1.0000000000E-02       0.0  switch                2.0000000000E+00       parabolic              1.0000000000E-05       5.0000000000E-01       smaller              
 cn_rech22               relative              1.0000000000E-02       0.0  switch                2.0000000000E+00       parabolic              1.0000000000E-05       5.0000000000E-01       smaller              
 cn_rech25               relative              1.0000000000E-02       0.0  switch                2.0000000000E+00       parabolic              1.0000000000E-05       5.0000000000E-01       smaller              
 cn_prsity8              relative              1.0000000000E-02       0.0  switch                2.0000000000E+00       parabolic              1.0000000000E-05       5.0000000000E-01       smaller              
 cn_rech10               relative              1.0000000000E-02       0.0  switch                2.0000000000E+00       parabolic              1.0000000000E-05       5.0000000000E-01       smaller              
 cn_prsity7              relative              1.0000000000E-02       0.0  switch                2.0000000000E+00       parabolic              1.0000000000E-05       5.0000000000E-01       smaller              
 cn_rech23               relative              1.0000000000E-02       0.0  switch                2.0000000000E+00       parabolic              1.0000000000E-05       5.0000000000E-01       smaller              
 cn_rech14               relative              1.0000000000E-02       0.0  switch                2.0000000000E+00       parabolic              1.0000000000E-05       5.0000000000E-01       smaller              
 cn_rech15               relative              1.0000000000E-02       0.0  switch                2.0000000000E+00       parabolic              1.0000000000E-05       5.0000000000E-01       smaller              
 cn_vka6                 relative              1.0000000000E-02       0.0  switch                2.0000000000E+00       parabolic              1.0000000000E-05       5.0000000000E-01       smaller              
 cn_rech26               relative              1.0000000000E-02       0.0  switch                2.0000000000E+00       parabolic              1.0000000000E-05       5.0000000000E-01       smaller              
 cn_sy8                  relative              1.0000000000E-02       0.0  switch                2.0000000000E+00       parabolic              1.0000000000E-05       5.0000000000E-01       smaller              
 cn_rech19               relative              1.0000000000E-02       0.0  switch                2.0000000000E+00       parabolic              1.0000000000E-05       5.0000000000E-01       smaller              
 cn_hk8                  relative              1.0000000000E-02       0.0  switch                2.0000000000E+00       parabolic              1.0000000000E-05       5.0000000000E-01       smaller              
 cn_hk6                  relative              1.0000000000E-02       0.0  switch                2.0000000000E+00       parabolic              1.0000000000E-05       5.0000000000E-01       smaller              
 cn_rech6                relative              1.0000000000E-02       0.0  switch                2.0000000000E+00       parabolic              1.0000000000E-05       5.0000000000E-01       smaller              
 cn_rech2                relative              1.0000000000E-02       0.0  switch                2.0000000000E+00       parabolic              1.0000000000E-05       5.0000000000E-01       smaller              
 cn_sy6                  relative              1.0000000000E-02       0.0  switch                2.0000000000E+00       parabolic              1.0000000000E-05       5.0000000000E-01       smaller              
 cn_ss6                  relative              1.0000000000E-02       0.0  switch                2.0000000000E+00       parabolic              1.0000000000E-05       5.0000000000E-01       smaller              
 cn_rech12               relative              1.0000000000E-02       0.0  switch                2.0000000000E+00       parabolic              1.0000000000E-05       5.0000000000E-01       smaller              
 cn_hk7                  relative              1.0000000000E-02       0.0  switch                2.0000000000E+00       parabolic              1.0000000000E-05       5.0000000000E-01       smaller              
 cn_rech9                relative              1.0000000000E-02       0.0  switch                2.0000000000E+00       parabolic              1.0000000000E-05       5.0000000000E-01       smaller              
 cn_rech21               relative              1.0000000000E-02       0.0  switch                2.0000000000E+00       parabolic              1.0000000000E-05       5.0000000000E-01       smaller              
 cn_rech4                relative              1.0000000000E-02       0.0  switch                2.0000000000E+00       parabolic              1.0000000000E-05       5.0000000000E-01       smaller              
 cn_rech20               relative              1.0000000000E-02       0.0  switch                2.0000000000E+00       parabolic              1.0000000000E-05       5.0000000000E-01       smaller              
 cn_rech8                relative              1.0000000000E-02       0.0  switch                2.0000000000E+00       parabolic              1.0000000000E-05       5.0000000000E-01       smaller              
 flow                    relative              1.0000000000E-02       0.0  switch                2.0000000000E+00       parabolic              1.0000000000E-05       5.0000000000E-01       smaller              
 cn_vka7                 relative              1.0000000000E-02       0.0  switch                2.0000000000E+00       parabolic              1.0000000000E-05       5.0000000000E-01       smaller              
 cn_rech16               relative              1.0000000000E-02       0.0  switch                2.0000000000E+00       parabolic              1.0000000000E-05       5.0000000000E-01       smaller              
 cn_sy7                  relative              1.0000000000E-02       0.0  switch                2.0000000000E+00       parabolic              1.0000000000E-05       5.0000000000E-01       smaller              
 cn_rech5                relative              1.0000000000E-02       0.0  switch                2.0000000000E+00       parabolic              1.0000000000E-05       5.0000000000E-01       smaller              
* parameter data
 const_hk6__cn          log                    factor                1.0000000000E+00      1.0000000000E-01      1.0000000000E+01       cn_hk6                1.0000000000E+00      0.0000000000E+00       1          
 const_hk7__cn          log                    factor                1.0000000000E+00      1.0000000000E-01      1.0000000000E+01       cn_hk7                1.0000000000E+00      0.0000000000E+00       1          
 const_hk8__cn          log                    factor                1.0000000000E+00      1.0000000000E-01      1.0000000000E+01       cn_hk8                1.0000000000E+00      0.0000000000E+00       1          
 const_prsity6__cn      log                    factor                1.0000000000E+00      8.0000000000E-01      1.2000000000E+00       cn_prsity6            1.0000000000E+00      0.0000000000E+00       1          
 const_prsity7__cn      log                    factor                1.0000000000E+00      8.0000000000E-01      1.2000000000E+00       cn_prsity7            1.0000000000E+00      0.0000000000E+00       1          
 const_prsity8__cn      log                    factor                1.0000000000E+00      8.0000000000E-01      1.2000000000E+00       cn_prsity8            1.0000000000E+00      0.0000000000E+00       1          
 const_rech10__cn       log                    factor                1.0000000000E+00      1.0000000000E-01      1.0000000000E+01       cn_rech10             1.0000000000E+00      0.0000000000E+00       1          
 const_rech11__cn       log                    factor                1.0000000000E+00      1.0000000000E-01      1.0000000000E+01       cn_rech11             1.0000000000E+00      0.0000000000E+00       1          
 const_rech12__cn       log                    factor                1.0000000000E+00      1.0000000000E-01      1.0000000000E+01       cn_rech12             1.0000000000E+00      0.0000000000E+00       1          
 const_rech13__cn       log                    factor                1.0000000000E+00      1.0000000000E-01      1.0000000000E+01       cn_rech13             1.0000000000E+00      0.0000000000E+00       1          
 const_rech14__cn       log                    factor                1.0000000000E+00      1.0000000000E-01      1.0000000000E+01       cn_rech14             1.0000000000E+00      0.0000000000E+00       1          
 const_rech15__cn       log                    factor                1.0000000000E+00      1.0000000000E-01      1.0000000000E+01       cn_rech15             1.0000000000E+00      0.0000000000E+00       1          
 const_rech16__cn       log                    factor                1.0000000000E+00      1.0000000000E-01      1.0000000000E+01       cn_rech16             1.0000000000E+00      0.0000000000E+00       1          
 const_rech17__cn       log                    factor                1.0000000000E+00      1.0000000000E-01      1.0000000000E+01       cn_rech17             1.0000000000E+00      0.0000000000E+00       1          
 const_rech18__cn       log                    factor                1.0000000000E+00      1.0000000000E-01      1.0000000000E+01       cn_rech18             1.0000000000E+00      0.0000000000E+00       1          
 const_rech19__cn       log                    factor                1.0000000000E+00      1.0000000000E-01      1.0000000000E+01       cn_rech19             1.0000000000E+00      0.0000000000E+00       1          
 const_rech20__cn       log                    factor                1.0000000000E+00      1.0000000000E-01      1.0000000000E+01       cn_rech20             1.0000000000E+00      0.0000000000E+00       1          
 const_rech21__cn       log                    factor                1.0000000000E+00      1.0000000000E-01      1.0000000000E+01       cn_rech21             1.0000000000E+00      0.0000000000E+00       1          
 const_rech22__cn       log                    factor                1.0000000000E+00      1.0000000000E-01      1.0000000000E+01       cn_rech22             1.0000000000E+00      0.0000000000E+00       1          
 const_rech23__cn       log                    factor                1.0000000000E+00      1.0000000000E-01      1.0000000000E+01       cn_rech23             1.0000000000E+00      0.0000000000E+00       1          
 const_rech24__cn       log                    factor                1.0000000000E+00      1.0000000000E-01      1.0000000000E+01       cn_rech24             1.0000000000E+00      0.0000000000E+00       1          
 const_rech25__cn       log                    factor                1.0000000000E+00      1.0000000000E-01      1.0000000000E+01       cn_rech25             1.0000000000E+00      0.0000000000E+00       1          
 const_rech26__cn       log                    factor                1.0000000000E+00      1.0000000000E-01      1.0000000000E+01       cn_rech26             1.0000000000E+00      0.0000000000E+00       1          
 const_rech2__cn        log                    factor                1.0000000000E+00      1.0000000000E-01      1.0000000000E+01       cn_rech2              1.0000000000E+00      0.0000000000E+00       1          
 const_rech3__cn        log                    factor                1.0000000000E+00      1.0000000000E-01      1.0000000000E+01       cn_rech3              1.0000000000E+00      0.0000000000E+00       1          
 const_rech4__cn        log                    factor                1.0000000000E+00      1.0000000000E-01      1.0000000000E+01       cn_rech4              1.0000000000E+00      0.0000000000E+00       1          
 const_rech5__cn        log                    factor                1.0000000000E+00      1.0000000000E-01      1.0000000000E+01       cn_rech5              1.0000000000E+00      0.0000000000E+00       1          
 const_rech6__cn        log                    factor                1.0000000000E+00      1.0000000000E-01      1.0000000000E+01       cn_rech6              1.0000000000E+00      0.0000000000E+00       1          
 const_rech7__cn        log                    factor                1.0000000000E+00      1.0000000000E-01      1.0000000000E+01       cn_rech7              1.0000000000E+00      0.0000000000E+00       1          
 const_rech8__cn        log                    factor                1.0000000000E+00      1.0000000000E-01      1.0000000000E+01       cn_rech8              1.0000000000E+00      0.0000000000E+00       1          
 const_rech9__cn        log                    factor                1.0000000000E+00      1.0000000000E-01      1.0000000000E+01       cn_rech9              1.0000000000E+00      0.0000000000E+00       1          
 const_ss6__cn          log                    factor                1.0000000000E+00      1.0000000000E-01      1.0000000000E+01       cn_ss6                1.0000000000E+00      0.0000000000E+00       1          
 const_ss7__cn          log                    factor                1.0000000000E+00      1.0000000000E-01      1.0000000000E+01       cn_ss7                1.0000000000E+00      0.0000000000E+00       1          
 const_ss8__cn          log                    factor                1.0000000000E+00      1.0000000000E-01      1.0000000000E+01       cn_ss8                1.0000000000E+00      0.0000000000E+00       1          
 const_sy6__cn          log                    factor                1.0000000000E+00      1.0000000000E-01      1.0000000000E+01       cn_sy6                1.0000000000E+00      0.0000000000E+00       1          
 const_sy7__cn          log                    factor                1.0000000000E+00      1.0000000000E-01      1.0000000000E+01       cn_sy7                1.0000000000E+00      0.0000000000E+00       1          
 const_sy8__cn          log                    factor                1.0000000000E+00      1.0000000000E-01      1.0000000000E+01       cn_sy8                1.0000000000E+00      0.0000000000E+00       1          
 const_vka6__cn         log                    factor                1.0000000000E+00      1.0000000000E-01      1.0000000000E+01       cn_vka6               1.0000000000E+00      0.0000000000E+00       1          
 const_vka7__cn         log                    factor                1.0000000000E+00      1.0000000000E-01      1.0000000000E+01       cn_vka7               1.0000000000E+00      0.0000000000E+00       1          
 const_vka8__cn         log                    factor                1.0000000000E+00      1.0000000000E-01      1.0000000000E+01       cn_vka8               1.0000000000E+00      0.0000000000E+00       1          
 dc0000390005           log                    factor                1.0000000000E+00      1.0000000000E-01      1.0000000000E+01       drncond_k00           1.0000000000E+00      0.0000000000E+00       1          
 dc0000390006           log                    factor                1.0000000000E+00      1.0000000000E-01      1.0000000000E+01       drncond_k00           1.0000000000E+00      0.0000000000E+00       1          
 dc0000390007           log                    factor                1.0000000000E+00      1.0000000000E-01      1.0000000000E+01       drncond_k00           1.0000000000E+00      0.0000000000E+00       1          
 dc0000390008           log                    factor                1.0000000000E+00      1.0000000000E-01      1.0000000000E+01       drncond_k00           1.0000000000E+00      0.0000000000E+00       1          
 dc0000390009           log                    factor                1.0000000000E+00      1.0000000000E-01      1.0000000000E+01       drncond_k00           1.0000000000E+00      0.0000000000E+00       1          
 dc0000390010           log                    factor                1.0000000000E+00      1.0000000000E-01      1.0000000000E+01       drncond_k00           1.0000000000E+00      0.0000000000E+00       1          
 dc0000390011           log                    factor                1.0000000000E+00      1.0000000000E-01      1.0000000000E+01       drncond_k00           1.0000000000E+00      0.0000000000E+00       1          
 dc0000390012           log                    factor                1.0000000000E+00      1.0000000000E-01      1.0000000000E+01       drncond_k00           1.0000000000E+00      0.0000000000E+00       1          
 dc0000390013           log                    factor                1.0000000000E+00      1.0000000000E-01      1.0000000000E+01       drncond_k00           1.0000000000E+00      0.0000000000E+00       1          
 dc0000390014           log                    factor                1.0000000000E+00      1.0000000000E-01      1.0000000000E+01       drncond_k00           1.0000000000E+00      0.0000000000E+00       1          
 flow_0001              log                    factor                1.0000000000E+00      7.5000000000E-01      1.2500000000E+00       flow                  1.0000000000E+00      0.0000000000E+00       1          
 hk000                  log                    factor                1.0000000000E+00      1.0000000000E-01      1.0000000000E+01       pp_hk0                1.0000000000E+00      0.0000000000E+00       1          
 hk001                  log                    factor                1.0000000000E+00      1.0000000000E-01      1.0000000000E+01       pp_hk0                1.0000000000E+00      0.0000000000E+00       1          
 hk002                  log                    factor                1.0000000000E+00      1.0000000000E-01      1.0000000000E+01       pp_hk0                1.0000000000E+00      0.0000000000E+00       1          
 hk003                  log                    factor                1.0000000000E+00      1.0000000000E-01      1.0000000000E+01       pp_hk0                1.0000000000E+00      0.0000000000E+00       1          
 hk004                  log                    factor                1.0000000000E+00      1.0000000000E-01      1.0000000000E+01       pp_hk0                1.0000000000E+00      0.0000000000E+00       1          
 hk005                  log                    factor                1.0000000000E+00      1.0000000000E-01      1.0000000000E+01       pp_hk0                1.0000000000E+00      0.0000000000E+00       1          
 hk006                  log                    factor                1.0000000000E+00      1.0000000000E-01      1.0000000000E+01       pp_hk0                1.0000000000E+00      0.0000000000E+00       1          
 hk007                  log                    factor                1.0000000000E+00      1.0000000000E-01      1.0000000000E+01       pp_hk0                1.0000000000E+00      0.0000000000E+00       1          